api/pglib_opf_case1888_rte__api.m
%%%%%%%%%%%%%%%%%%%%%%%%%%%%%%%%%%%%%%%%%%%%%%%%%%%%%%%%%%%%%%%%%%%%%%%%%%%
%%%%                                                                  %%%%%
%%%%    IEEE PES Power Grid Library - Optimal Power Flow - v17.07     %%%%%
%%%%          (https://github.com/power-grid-lib/pglib-opf)           %%%%%
%%%%             Benchmark Group - Active Power Increase              %%%%%
%%%%                        27 - August - 2017                        %%%%%
%%%%                                                                  %%%%%
%%%%%%%%%%%%%%%%%%%%%%%%%%%%%%%%%%%%%%%%%%%%%%%%%%%%%%%%%%%%%%%%%%%%%%%%%%%
function mpc = pglib_opf_case1888_rte__api
mpc.version = '2';
mpc.baseMVA = 100.0;

%% bus data
%	bus_i	type	Pd	Qd	Gs	Bs	area	Vm	Va	baseKV	zone	Vmax	Vmin
mpc.bus = [
	1	 1	 5.80	 -5.80	 0.0	 0.0	 1	    0.98889	    0.00000	 225.0	 1	    1.08889	    0.88889;
	2	 1	 0.00	 0.00	 0.0	 0.0	 1	    1.07552	    0.00000	 380.0	 1	    1.10263	    1.04841;
	3	 1	 142.50	 -13.40	 0.0	 0.0	 1	    1.04444	    0.00000	 225.0	 1	    1.08444	    1.00444;
	4	 1	 0.00	 0.00	 0.0	 0.0	 1	    1.00334	    0.00000	 150.0	 1	    1.10667	    0.90000;
	5	 1	 32.80	 -5.30	 0.0	 0.0	 1	    1.01111	    0.00000	 225.0	 1	    1.08889	    0.93333;
	6	 1	 64.14	 4.00	 0.0	 0.0	 1	    1.01111	    0.00000	 225.0	 1	    1.08889	    0.93333;
	7	 1	 0.00	 0.00	 0.0	 0.0	 1	    1.07237	    0.00000	 380.0	 1	    1.10526	    1.03947;
	8	 1	 0.00	 0.00	 0.0	 0.0	 1	    1.07237	    0.00000	 380.0	 1	    1.10526	    1.03947;
	9	 1	 0.00	 0.00	 0.0	 0.0	 1	    1.04739	    0.00000	 225.0	 1	    1.09035	    1.00444;
	10	 1	 237.43	 14.90	 0.0	 0.0	 1	    1.01111	    0.00000	 225.0	 1	    1.08889	    0.93333;
	11	 1	 40.85	 5.00	 0.0	 0.0	 1	    1.04666	    0.00000	 225.0	 1	    1.08889	    1.00444;
	12	 1	 62.39	 8.70	 0.0	 0.0	 1	    1.04666	    0.00000	 225.0	 1	    1.08889	    1.00444;
	13	 1	 112.49	 17.20	 0.0	 0.0	 1	    1.04666	    0.00000	 225.0	 1	    1.08889	    1.00444;
	14	 1	 36.00	 -4.20	 0.0	 0.0	 1	    1.01626	    0.00000	 225.0	 1	    1.08252	    0.95000;
	15	 1	 0.00	 0.00	 0.0	 0.0	 1	    1.04666	    0.00000	 225.0	 1	    1.08889	    1.00444;
	16	 1	 0.00	 0.00	 0.0	 0.0	 1	    1.04666	    0.00000	 225.0	 1	    1.08889	    1.00444;
	17	 1	 23.70	 -12.40	 0.0	 0.0	 1	    0.98889	    0.00000	 225.0	 1	    1.08889	    0.88889;
	18	 1	 5.90	 -4.80	 0.0	 0.0	 1	    1.04150	    0.00000	 225.0	 1	    1.09633	    0.98667;
	19	 1	 54.25	 3.70	 0.0	 0.0	 1	    1.04666	    0.00000	 225.0	 1	    1.08889	    1.00444;
	20	 1	 11.01	 0.80	 0.0	 0.0	 1	    1.04666	    0.00000	 225.0	 1	    1.08889	    1.00444;
	21	 1	 9.20	 -29.10	 0.0	 0.0	 1	    1.04666	    0.00000	 225.0	 1	    1.08889	    1.00444;
	22	 1	 67.70	 -3.60	 0.0	 0.0	 1	    1.03778	    0.00000	 225.0	 1	    1.08889	    0.98667;
	23	 1	 25.40	 -2.70	 0.0	 0.0	 1	    0.98889	    0.00000	 225.0	 1	    1.08889	    0.88889;
	25	 1	 102.12	 4.60	 0.0	 0.0	 1	    1.04666	    0.00000	 225.0	 1	    1.08444	    1.00889;
	27	 1	 114.25	 46.70	 0.0	 0.0	 1	    1.01111	    0.00000	 225.0	 1	    1.08889	    0.93333;
	28	 1	 168.18	 6.90	 0.0	 0.0	 1	    1.04666	    0.00000	 225.0	 1	    1.08889	    1.00444;
	29	 1	 0.00	 0.00	 0.0	 0.0	 1	    1.07684	    0.00000	 380.0	 1	    1.10526	    1.04842;
	30	 1	 0.00	 0.00	 0.0	 0.0	 1	    1.07684	    0.00000	 380.0	 1	    1.10526	    1.04842;
	31	 1	 34.63	 0.90	 0.0	 0.0	 1	    1.04666	    0.00000	 225.0	 1	    1.08444	    1.00889;
	33	 1	 109.94	 2.60	 0.0	 0.0	 1	    1.04666	    0.00000	 225.0	 1	    1.08444	    1.00889;
	34	 1	 80.74	 12.70	 0.0	 0.0	 1	    1.04666	    0.00000	 225.0	 1	    1.08889	    1.00444;
	35	 1	 27.13	 2.10	 0.0	 0.0	 1	    1.02333	    0.00000	 150.0	 1	    1.08000	    0.96667;
	36	 1	 60.95	 6.30	 0.0	 0.0	 1	    1.04606	    0.00000	 225.0	 1	    1.09212	    1.00000;
	37	 1	 0.00	 0.00	 0.0	 0.0	 1	    1.07655	    0.00000	 380.0	 1	    1.10526	    1.04785;
	38	 1	 142.01	 9.60	 0.0	 0.0	 1	    1.03778	    0.00000	 225.0	 1	    1.08889	    0.98667;
	2050	 1	 0.00	 0.00	 0.0	 -64.0	 1	    1.15000	    0.00000	 20.0	 1	    1.50000	    0.80000;
	39	 1	 70.90	 -2.30	 0.0	 0.0	 1	    1.02889	    0.00000	 225.0	 1	    1.08889	    0.96889;
	40	 1	 136.20	 -10.70	 0.0	 0.0	 1	    1.05263	    0.00000	 380.0	 1	    1.10526	    1.00000;
	41	 1	 103.08	 17.30	 0.0	 0.0	 1	    1.01111	    0.00000	 225.0	 1	    1.08889	    0.93333;
	42	 1	 21.38	 3.30	 0.0	 0.0	 1	    0.98889	    0.00000	 225.0	 1	    1.08889	    0.88889;
	43	 1	 53.13	 4.70	 0.0	 0.0	 1	    0.98889	    0.00000	 225.0	 1	    1.08889	    0.88889;
	44	 1	 211.60	 -1.30	 0.0	 0.0	 1	    1.04470	    0.00000	 225.0	 1	    1.08496	    1.00444;
	45	 1	 92.10	 -9.10	 0.0	 0.0	 1	    1.04666	    0.00000	 225.0	 1	    1.08889	    1.00444;
	46	 2	 0.00	 0.00	 0.0	 0.0	 1	    1.00422	    0.00000	 150.0	 1	    1.10843	    0.90000;
	47	 1	 0.00	 0.00	 0.0	 0.0	 1	    1.04666	    0.00000	 225.0	 1	    1.08889	    1.00444;
	48	 1	 0.00	 0.00	 0.0	 0.0	 1	    1.04666	    0.00000	 225.0	 1	    1.08889	    1.00444;
	49	 1	 101.64	 84.50	 0.0	 -80.0	 1	    1.04666	    0.00000	 225.0	 1	    1.08889	    1.00444;
	50	 1	 16.59	 6.60	 0.0	 0.0	 1	    1.04666	    0.00000	 225.0	 1	    1.08889	    1.00444;
	51	 1	 0.00	 0.00	 0.0	 0.0	 1	    1.04445	    0.00000	 225.0	 1	    1.08889	    1.00000;
	52	 1	 109.62	 16.50	 0.0	 0.0	 1	    0.98889	    0.00000	 225.0	 1	    1.08889	    0.88889;
	53	 1	 161.48	 15.90	 0.0	 0.0	 1	    1.02889	    0.00000	 225.0	 1	    1.08889	    0.96889;
	54	 1	 0.00	 0.00	 0.0	 0.0	 1	    1.05263	    0.00000	 380.0	 1	    1.10526	    1.00000;
	55	 1	 46.11	 10.60	 0.0	 0.0	 1	    1.04666	    0.00000	 225.0	 1	    1.08444	    1.00889;
	56	 1	 45.00	 2.10	 0.0	 0.0	 1	    1.04666	    0.00000	 225.0	 1	    1.08444	    1.00889;
	1827	 1	 109.60	 -12.90	 0.0	 0.0	 1	    1.04666	    0.00000	 225.0	 1	    1.08889	    1.00444;
	57	 1	 27.30	 -10.90	 0.0	 0.0	 1	    1.01139	    0.00000	 225.0	 1	    1.08945	    0.93333;
	58	 2	 0.00	 0.00	 0.0	 0.0	 1	    1.00431	    0.00000	 150.0	 1	    1.10862	    0.90000;
	59	 1	 58.72	 20.30	 0.0	 0.0	 1	    1.04666	    0.00000	 225.0	 1	    1.08444	    1.00889;
	60	 1	 58.24	 30.80	 0.0	 0.0	 1	    1.04666	    0.00000	 225.0	 1	    1.08444	    1.00889;
	61	 1	 0.00	 0.00	 0.0	 0.0	 1	    1.03333	    0.00000	 225.0	 1	    1.08889	    0.97778;
	62	 1	 8.40	 -0.30	 0.0	 0.0	 1	    0.98889	    0.00000	 225.0	 1	    1.08889	    0.88889;
	63	 1	 13.20	 -6.30	 0.0	 0.0	 1	    1.01111	    0.00000	 225.0	 1	    1.08889	    0.93333;
	64	 1	 21.06	 3.30	 0.0	 0.0	 1	    1.04666	    0.00000	 225.0	 1	    1.08889	    1.00444;
	65	 1	 36.22	 2.50	 0.0	 0.0	 1	    1.04666	    0.00000	 225.0	 1	    1.08889	    1.00444;
	66	 1	 11.40	 -9.70	 0.0	 0.0	 1	    1.04445	    0.00000	 225.0	 1	    1.08889	    1.00000;
	67	 1	 10.20	 -1.30	 0.0	 0.0	 1	    1.03778	    0.00000	 225.0	 1	    1.08889	    0.98667;
	68	 1	 0.00	 0.00	 0.0	 0.0	 1	    0.98889	    0.00000	 225.0	 1	    1.08889	    0.88889;
	69	 1	 0.00	 0.00	 0.0	 0.0	 1	    0.98889	    0.00000	 225.0	 1	    1.08889	    0.88889;
	70	 1	 0.00	 0.00	 0.0	 0.0	 1	    1.05921	    0.00000	 380.0	 1	    1.10526	    1.01316;
	71	 1	 62.55	 2.80	 0.0	 0.0	 1	    1.04666	    0.00000	 225.0	 1	    1.08889	    1.00444;
	72	 1	 30.80	 3.30	 0.0	 -80.0	 1	    1.04666	    0.00000	 225.0	 1	    1.08889	    1.00444;
	73	 1	 0.00	 0.00	 0.0	 0.0	 1	    1.03333	    0.00000	 225.0	 1	    1.08889	    0.97778;
	74	 1	 0.00	 0.00	 0.0	 0.0	 1	    1.03333	    0.00000	 225.0	 1	    1.08889	    0.97778;
	75	 1	 210.46	 3.20	 0.0	 0.0	 1	    1.04666	    0.00000	 225.0	 1	    1.08444	    1.00889;
	76	 1	 0.00	 0.00	 0.0	 0.0	 1	    1.04444	    0.00000	 225.0	 1	    1.08444	    1.00444;
	77	 1	 0.00	 0.00	 0.0	 0.0	 1	    1.07237	    0.00000	 380.0	 1	    1.10263	    1.04211;
	78	 1	 94.60	 -1.90	 0.0	 0.0	 1	    1.04444	    0.00000	 225.0	 1	    1.08444	    1.00444;
	79	 1	 -1.70	 -4.60	 0.0	 0.0	 1	    1.04690	    0.00000	 225.0	 1	    1.08936	    1.00444;
	80	 1	 3.60	 -7.20	 0.0	 0.0	 1	    1.04690	    0.00000	 225.0	 1	    1.08936	    1.00444;
	81	 1	 56.49	 10.90	 0.0	 0.0	 1	    0.98889	    0.00000	 225.0	 1	    1.08889	    0.88889;
	82	 1	 24.09	 0.70	 0.0	 0.0	 1	    1.01562	    0.00000	 225.0	 1	    1.08124	    0.95000;
	83	 1	 91.59	 18.00	 0.0	 0.0	 1	    0.98889	    0.00000	 225.0	 1	    1.08889	    0.88889;
	84	 1	 89.90	 -5.80	 0.0	 0.0	 1	    1.04445	    0.00000	 225.0	 1	    1.08889	    1.00000;
	85	 1	 0.00	 0.00	 0.0	 0.0	 1	    1.04445	    0.00000	 225.0	 1	    1.08889	    1.00000;
	86	 1	 382.63	 17.50	 0.0	 0.0	 1	    1.07798	    0.00000	 380.0	 1	    1.10526	    1.05070;
	87	 1	 56.64	 16.00	 0.0	 0.0	 1	    1.04445	    0.00000	 225.0	 1	    1.08889	    1.00000;
	88	 1	 121.43	 23.00	 0.0	 0.0	 1	    1.04445	    0.00000	 225.0	 1	    1.08889	    1.00000;
	89	 2	 0.00	 0.00	 0.0	 0.0	 1	    1.00000	    0.00000	 150.0	 1	    1.10000	    0.90000;
	90	 1	 33.99	 12.00	 0.0	 0.0	 1	    1.03778	    0.00000	 225.0	 1	    1.08889	    0.98667;
	91	 1	 11.20	 -5.20	 0.0	 0.0	 1	    1.04666	    0.00000	 225.0	 1	    1.08444	    1.00889;
	92	 1	 0.00	 0.00	 0.0	 0.0	 1	    1.07369	    0.00000	 380.0	 1	    1.10526	    1.04211;
	93	 1	 0.00	 0.00	 0.0	 0.0	 1	    1.07369	    0.00000	 380.0	 1	    1.10526	    1.04211;
	96	 1	 18.67	 1.30	 0.0	 0.0	 1	    1.04445	    0.00000	 225.0	 1	    1.08889	    1.00000;
	97	 1	 9.73	 1.40	 0.0	 0.0	 1	    1.04666	    0.00000	 225.0	 1	    1.08889	    1.00444;
	98	 1	 50.42	 2.60	 0.0	 0.0	 1	    1.00000	    0.00000	 150.0	 1	    1.10000	    0.90000;
	99	 1	 68.90	 -11.70	 0.0	 0.0	 1	    1.04445	    0.00000	 225.0	 1	    1.08889	    1.00000;
	100	 2	 0.20	 -0.00	 0.0	 0.0	 1	    1.01647	    0.00000	 225.0	 1	    1.08294	    0.95000;
	101	 1	 0.00	 0.00	 0.0	 0.0	 1	    1.01111	    0.00000	 225.0	 1	    1.08889	    0.93333;
	102	 1	 0.00	 0.00	 0.0	 0.0	 1	    1.07237	    0.00000	 380.0	 1	    1.10526	    1.03947;
	103	 1	 0.00	 0.00	 0.0	 0.0	 1	    1.07237	    0.00000	 380.0	 1	    1.10526	    1.03947;
	104	 1	 0.00	 0.00	 0.0	 0.0	 1	    1.04666	    0.00000	 225.0	 1	    1.08889	    1.00444;
	1828	 1	 48.03	 3.80	 0.0	 0.0	 1	    1.04666	    0.00000	 225.0	 1	    1.08889	    1.00444;
	105	 1	 0.00	 0.00	 0.0	 0.0	 1	    1.03778	    0.00000	 225.0	 1	    1.08889	    0.98667;
	106	 1	 19.31	 4.50	 0.0	 0.0	 1	    1.04666	    0.00000	 225.0	 1	    1.08889	    1.00444;
	107	 1	 106.10	 -0.30	 0.0	 0.0	 1	    1.01111	    0.00000	 225.0	 1	    1.08889	    0.93333;
	108	 1	 0.00	 0.00	 0.0	 0.0	 1	    1.07237	    0.00000	 380.0	 1	    1.10526	    1.03947;
	109	 1	 69.09	 8.40	 0.0	 0.0	 1	    1.04445	    0.00000	 225.0	 1	    1.08889	    1.00000;
	110	 1	 33.20	 -7.50	 0.0	 0.0	 1	    1.04715	    0.00000	 225.0	 1	    1.08986	    1.00444;
	111	 1	 99.50	 -12.40	 0.0	 0.0	 1	    1.04806	    0.00000	 225.0	 1	    1.09612	    1.00000;
	112	 1	 116.40	 -6.70	 0.0	 0.0	 1	    1.03778	    0.00000	 225.0	 1	    1.08889	    0.98667;
	113	 1	 104.83	 14.70	 0.0	 0.0	 1	    1.04740	    0.00000	 225.0	 1	    1.09036	    1.00444;
	114	 1	 171.05	 21.20	 0.0	 0.0	 1	    1.00667	    0.00000	 225.0	 1	    1.08889	    0.92444;
	115	 1	 56.90	 -2.70	 0.0	 0.0	 1	    1.04140	    0.00000	 225.0	 1	    1.09614	    0.98667;
	117	 1	 0.00	 0.00	 0.0	 0.0	 1	    1.07237	    0.00000	 380.0	 1	    1.10526	    1.03947;
	119	 1	 123.60	 -19.80	 0.0	 0.0	 1	    1.04444	    0.00000	 225.0	 1	    1.08444	    1.00444;
	2051	 1	 0.00	 0.00	 0.0	 -64.0	 1	    1.10000	    0.00000	 20.0	 1	    1.40000	    0.80000;
	120	 1	 33.30	 -21.30	 0.0	 0.0	 1	    1.04666	    0.00000	 225.0	 1	    1.08444	    1.00889;
	121	 1	 0.00	 0.00	 0.0	 0.0	 1	    1.06579	    0.00000	 380.0	 1	    1.10263	    1.02895;
	122	 1	 1.70	 -4.40	 0.0	 0.0	 1	    1.01111	    0.00000	 225.0	 1	    1.08889	    0.93333;
	123	 1	 223.87	 17.30	 0.0	 0.0	 1	    1.01111	    0.00000	 225.0	 1	    1.08889	    0.93333;
	124	 1	 33.70	 -1.80	 0.0	 0.0	 1	    1.00000	    0.00000	 63.0	 1	    1.07937	    0.92063;
	125	 2	 0.00	 0.00	 0.0	 0.0	 1	    1.01238	    0.00000	 225.0	 1	    1.07476	    0.95000;
	126	 1	 -1.90	 -5.40	 0.0	 0.0	 1	    1.04884	    0.00000	 225.0	 1	    1.09768	    1.00000;
	127	 1	 0.00	 0.00	 0.0	 0.0	 1	    1.07895	    0.00000	 380.0	 1	    1.10526	    1.05263;
	128	 1	 0.00	 0.00	 0.0	 0.0	 1	    1.07895	    0.00000	 380.0	 1	    1.10526	    1.05263;
	129	 1	 0.00	 0.00	 0.0	 0.0	 1	    1.07895	    0.00000	 380.0	 1	    1.10526	    1.05263;
	130	 1	 0.00	 0.00	 0.0	 0.0	 1	    1.07895	    0.00000	 380.0	 1	    1.10526	    1.05263;
	131	 1	 0.00	 0.00	 0.0	 0.0	 1	    1.04156	    0.00000	 225.0	 1	    1.09645	    0.98667;
	132	 1	 0.00	 0.00	 0.0	 0.0	 1	    1.04156	    0.00000	 225.0	 1	    1.09645	    0.98667;
	133	 1	 0.00	 0.00	 0.0	 0.0	 1	    1.07237	    0.00000	 380.0	 1	    1.10526	    1.03947;
	134	 1	 77.30	 -10.60	 0.0	 0.0	 1	    1.02889	    0.00000	 225.0	 1	    1.08889	    0.96889;
	135	 1	 44.84	 3.80	 0.0	 0.0	 1	    1.04666	    0.00000	 225.0	 1	    1.08444	    1.00889;
	136	 1	 -5.20	 -9.40	 0.0	 0.0	 1	    1.07237	    0.00000	 380.0	 1	    1.10526	    1.03947;
	137	 1	 169.77	 8.00	 0.0	 0.0	 1	    1.01111	    0.00000	 225.0	 1	    1.08889	    0.93333;
	138	 1	 0.00	 0.00	 0.0	 0.0	 1	    1.07237	    0.00000	 380.0	 1	    1.10526	    1.03947;
	140	 1	 113.70	 -8.30	 0.0	 0.0	 1	    1.04666	    0.00000	 225.0	 1	    1.08444	    1.00889;
	141	 1	 71.16	 0.50	 0.0	 0.0	 1	    1.04666	    0.00000	 225.0	 1	    1.08444	    1.00889;
	142	 1	 165.20	 -11.80	 0.0	 0.0	 1	    1.04444	    0.00000	 225.0	 1	    1.08444	    1.00444;
	143	 1	 46.59	 2.10	 0.0	 0.0	 1	    1.01111	    0.00000	 225.0	 1	    1.08889	    0.93333;
	144	 1	 52.34	 4.40	 0.0	 0.0	 1	    1.01111	    0.00000	 225.0	 1	    1.08889	    0.93333;
	145	 1	 19.00	 -18.10	 0.0	 0.0	 1	    1.04698	    0.00000	 225.0	 1	    1.08952	    1.00444;
	146	 1	 0.00	 0.00	 0.0	 0.0	 1	    1.04739	    0.00000	 225.0	 1	    1.09478	    1.00000;
	147	 1	 0.00	 0.00	 0.0	 0.0	 1	    1.04739	    0.00000	 225.0	 1	    1.09478	    1.00000;
	148	 1	 59.20	 5.60	 0.0	 0.0	 1	    1.04445	    0.00000	 225.0	 1	    1.08889	    1.00000;
	149	 1	 20.00	 -3.90	 0.0	 0.0	 1	    1.04666	    0.00000	 225.0	 1	    1.08889	    1.00444;
	150	 1	 60.79	 1.60	 0.0	 0.0	 1	    1.04666	    0.00000	 225.0	 1	    1.08444	    1.00889;
	151	 1	 24.80	 -1.80	 0.0	 0.0	 1	    1.04445	    0.00000	 225.0	 1	    1.08889	    1.00000;
	152	 1	 0.00	 0.00	 0.0	 0.0	 1	    1.04666	    0.00000	 225.0	 1	    1.08444	    1.00889;
	153	 1	 0.00	 0.00	 0.0	 0.0	 1	    1.04666	    0.00000	 225.0	 1	    1.08444	    1.00889;
	154	 1	 0.00	 0.00	 0.0	 0.0	 1	    1.04666	    0.00000	 225.0	 1	    1.08444	    1.00889;
	155	 1	 0.00	 0.00	 0.0	 0.0	 1	    1.06579	    0.00000	 380.0	 1	    1.10263	    1.02895;
	156	 1	 247.80	 26.50	 0.0	 0.0	 1	    0.98889	    0.00000	 225.0	 1	    1.08889	    0.88889;
	157	 1	 0.00	 0.00	 0.0	 0.0	 1	    1.04883	    0.00000	 225.0	 1	    1.09766	    1.00000;
	158	 1	 0.00	 0.00	 0.0	 0.0	 1	    1.07895	    0.00000	 380.0	 1	    1.10526	    1.05263;
	159	 1	 34.31	 4.40	 0.0	 0.0	 1	    1.03778	    0.00000	 225.0	 1	    1.08889	    0.98667;
	160	 1	 41.81	 2.10	 0.0	 0.0	 1	    1.04445	    0.00000	 225.0	 1	    1.08889	    1.00000;
	161	 1	 0.00	 0.00	 0.0	 0.0	 1	    1.04444	    0.00000	 225.0	 1	    1.08444	    1.00444;
	162	 1	 0.00	 0.00	 0.0	 0.0	 1	    1.04444	    0.00000	 225.0	 1	    1.08444	    1.00444;
	163	 1	 0.00	 0.00	 0.0	 0.0	 1	    1.04444	    0.00000	 225.0	 1	    1.08444	    1.00444;
	164	 1	 55.30	 -11.40	 0.0	 0.0	 1	    1.04444	    0.00000	 225.0	 1	    1.08444	    1.00444;
	165	 1	 0.00	 0.00	 0.0	 0.0	 1	    1.01111	    0.00000	 225.0	 1	    1.08889	    0.93333;
	166	 1	 47.87	 12.30	 0.0	 0.0	 1	    1.03778	    0.00000	 225.0	 1	    1.08889	    0.98667;
	2019	 1	 0.00	 0.00	 0.0	 -64.0	 1	    1.15000	    0.00000	 20.0	 1	    1.40000	    0.90000;
	167	 1	 0.00	 0.00	 0.0	 0.0	 1	    1.04470	    0.00000	 225.0	 1	    1.08941	    1.00000;
	168	 1	 0.00	 0.00	 0.0	 0.0	 1	    1.07895	    0.00000	 380.0	 1	    1.10526	    1.05263;
	169	 2	 0.00	 0.00	 0.0	 0.0	 1	    1.00000	    0.00000	 225.0	 1	    1.10000	    0.90000;
	170	 1	 28.40	 2.60	 0.0	 0.0	 1	    1.02333	    0.00000	 150.0	 1	    1.08000	    0.96667;
	171	 1	 25.30	 -3.20	 0.0	 0.0	 1	    1.04666	    0.00000	 225.0	 1	    1.08889	    1.00444;
	172	 1	 -3.70	 -2.00	 0.0	 0.0	 1	    1.04666	    0.00000	 225.0	 1	    1.08889	    1.00444;
	173	 1	 59.52	 0.70	 0.0	 0.0	 1	    0.98889	    0.00000	 225.0	 1	    1.08889	    0.88889;
	181	 1	 172.17	 3.90	 0.0	 0.0	 1	    1.04445	    0.00000	 225.0	 1	    1.08889	    1.00000;
	182	 1	 47.07	 6.80	 0.0	 0.0	 1	    1.03778	    0.00000	 225.0	 1	    1.08889	    0.98667;
	183	 1	 0.00	 0.00	 0.0	 0.0	 1	    1.07237	    0.00000	 380.0	 1	    1.10526	    1.03947;
	184	 1	 0.00	 0.00	 0.0	 0.0	 1	    1.07237	    0.00000	 380.0	 1	    1.10526	    1.03947;
	185	 1	 0.00	 0.00	 0.0	 0.0	 1	    1.07237	    0.00000	 380.0	 1	    1.10526	    1.03947;
	186	 1	 0.00	 0.00	 0.0	 0.0	 1	    1.07237	    0.00000	 380.0	 1	    1.10526	    1.03947;
	187	 1	 28.10	 -10.00	 0.0	 0.0	 1	    1.00667	    0.00000	 225.0	 1	    1.08889	    0.92444;
	188	 1	 -2.00	 -1.10	 0.0	 0.0	 1	    1.03778	    0.00000	 225.0	 1	    1.08889	    0.98667;
	189	 1	 104.99	 19.10	 0.0	 0.0	 1	    1.04444	    0.00000	 225.0	 1	    1.08444	    1.00444;
	190	 1	 -2.30	 1.20	 0.0	 0.0	 1	    1.07237	    0.00000	 380.0	 1	    1.10263	    1.04211;
	191	 1	 -2.30	 1.40	 0.0	 0.0	 1	    1.07237	    0.00000	 380.0	 1	    1.10263	    1.04211;
	192	 1	 0.00	 0.00	 0.0	 0.0	 1	    1.04666	    0.00000	 225.0	 1	    1.08889	    1.00444;
	193	 1	 0.00	 0.00	 0.0	 0.0	 1	    1.03333	    0.00000	 225.0	 1	    1.08889	    0.97778;
	194	 1	 0.00	 0.00	 0.0	 0.0	 1	    1.03333	    0.00000	 225.0	 1	    1.08889	    0.97778;
	195	 1	 83.60	 -8.60	 0.0	 0.0	 1	    1.02889	    0.00000	 225.0	 1	    1.08889	    0.96889;
	196	 1	 0.00	 0.00	 0.0	 0.0	 1	    1.01111	    0.00000	 225.0	 1	    1.08889	    0.93333;
	197	 1	 0.00	 0.00	 0.0	 0.0	 1	    1.01111	    0.00000	 225.0	 1	    1.08889	    0.93333;
	198	 1	 91.75	 10.20	 0.0	 0.0	 1	    1.04444	    0.00000	 225.0	 1	    1.08444	    1.00444;
	199	 1	 177.40	 -31.40	 0.0	 0.0	 1	    1.04444	    0.00000	 225.0	 1	    1.08444	    1.00444;
	200	 1	 0.00	 0.00	 0.0	 0.0	 1	    1.03333	    0.00000	 225.0	 1	    1.08889	    0.97778;
	201	 1	 0.00	 0.00	 0.0	 0.0	 1	    1.04444	    0.00000	 225.0	 1	    1.08444	    1.00444;
	202	 1	 124.20	 -3.20	 0.0	 0.0	 1	    1.02000	    0.00000	 225.0	 1	    1.08889	    0.95111;
	203	 1	 56.33	 1.90	 0.0	 0.0	 1	    1.04666	    0.00000	 225.0	 1	    1.08889	    1.00444;
	204	 1	 51.60	 -4.00	 0.0	 0.0	 1	    1.03778	    0.00000	 225.0	 1	    1.08889	    0.98667;
	2086	 1	 0.00	 0.00	 0.0	 -64.0	 1	    1.10000	    0.00000	 20.0	 1	    1.40000	    0.80000;
	205	 1	 16.90	 -1.80	 0.0	 0.0	 1	    1.04666	    0.00000	 225.0	 1	    1.08444	    1.00889;
	206	 1	 0.00	 0.00	 0.0	 0.0	 1	    1.06579	    0.00000	 380.0	 1	    1.10263	    1.02895;
	207	 1	 38.60	 -0.70	 0.0	 0.0	 1	    1.04666	    0.00000	 225.0	 1	    1.08889	    1.00444;
	1829	 2	 0.00	 0.00	 0.0	 0.0	 1	    1.01429	    0.00000	 225.0	 1	    1.07859	    0.95000;
	208	 1	 0.00	 0.00	 0.0	 0.0	 1	    0.98889	    0.00000	 225.0	 1	    1.08889	    0.88889;
...
];

%% generator data
%	bus	Pg	Qg	Qmax	Qmin	Vg	mBase	status	Pmax	Pmin	Pc1	Pc2	Qc1min	Qc1max	Qc2min	Qc2max	ramp_agc	ramp_10	ramp_30	ramp_q	apf
mpc.gen = [
	1268	 172.0	 0.0	 161.0	 -161.0	 1.027	 100.0	 1	 322	 22.0	 0.0	 0.0	 0.0	 0.0	 0.0	 0.0	 0.0	 0.0	 0.0	 0.0	 0.0; % NG
	1268	 147.5	 0.0	 137.0	 -137.0	 1.027	 100.0	 1	 273	 22.0	 0.0	 0.0	 0.0	 0.0	 0.0	 0.0	 0.0	 0.0	 0.0	 0.0	 0.0; % NG
	1356	 173.6	 0.0	 173.0	 -173.0	 1.046	 100.0	 1	 345	 2.2	 0.0	 0.0	 0.0	 0.0	 0.0	 0.0	 0.0	 0.0	 0.0	 0.0	 0.0; % PEL
	89	 57.75	 0.0	 236.4	 -236.4	 1.02	 100.0	 1	 113	 2.5	 0.0	 0.0	 0.0	 0.0	 0.0	 0.0	 0.0	 0.0	 0.0	 0.0	 0.0; % NG
	125	 86.17	 0.0	 85.0	 -85.0	 1.034	 100.0	 1	 170	 2.34	 0.0	 0.0	 0.0	 0.0	 0.0	 0.0	 0.0	 0.0	 0.0	 0.0	 0.0; % PEL
	908	 30.5	 0.0	 280.8	 -280.8	 1.035	 100.0	 1	 59	 2.0	 0.0	 0.0	 0.0	 0.0	 0.0	 0.0	 0.0	 0.0	 0.0	 0.0	 0.0; % PEL
	817	 13.1	 0.0	 13.0	 -13.0	 1.039	 100.0	 0	 25	 1.2	 0.0	 0.0	 0.0	 0.0	 0.0	 0.0	 0.0	 0.0	 0.0	 0.0	 0.0; % PEL
	817	 60.2	 0.0	 2409.6	 -2409.6	 1.039	 100.0	 1	 119	 1.4	 0.0	 0.0	 0.0	 0.0	 0.0	 0.0	 0.0	 0.0	 0.0	 0.0	 0.0; % NG
	817	 9.6	 0.0	 9.0	 -9.0	 1.039	 100.0	 0	 18	 1.2	 0.0	 0.0	 0.0	 0.0	 0.0	 0.0	 0.0	 0.0	 0.0	 0.0	 0.0; % COW
	1335	 100.0	 0.0	 152.4	 -152.4	 1.021	 100.0	 1	 197	 3.0	 0.0	 0.0	 0.0	 0.0	 0.0	 0.0	 0.0	 0.0	 0.0	 0.0	 0.0; % NG
	396	 39.55	 0.0	 39.0	 -39.0	 1.015	 100.0	 1	 78	 1.1	 0.0	 0.0	 0.0	 0.0	 0.0	 0.0	 0.0	 0.0	 0.0	 0.0	 0.0; % NG
	396	 45.55	 0.0	 45.0	 -45.0	 1.015	 100.0	 1	 90	 1.1	 0.0	 0.0	 0.0	 0.0	 0.0	 0.0	 0.0	 0.0	 0.0	 0.0	 0.0; % NG
	975	 222.75	 0.0	 221.0	 -221.0	 1.05	 100.0	 1	 442	 3.5	 0.0	 0.0	 0.0	 0.0	 0.0	 0.0	 0.0	 0.0	 0.0	 0.0	 0.0; % NG
	858	 184.77	 0.0	 182.0	 -182.0	 1.048	 100.0	 1	 364	 5.54	 0.0	 0.0	 0.0	 0.0	 0.0	 0.0	 0.0	 0.0	 0.0	 0.0	 0.0; % PEL
	921	 48.1	 0.0	 46.0	 -46.0	 1.045	 100.0	 1	 92	 4.2	 0.0	 0.0	 0.0	 0.0	 0.0	 0.0	 0.0	 0.0	 0.0	 0.0	 0.0; % PEL
	921	 42.6	 0.0	 41.0	 -41.0	 1.045	 100.0	 1	 81	 4.2	 0.0	 0.0	 0.0	 0.0	 0.0	 0.0	 0.0	 0.0	 0.0	 0.0	 0.0; % NG
	1255	 258.85	 0.0	 255.0	 -255.0	 1.046	 100.0	 1	 509	 8.7	 0.0	 0.0	 0.0	 0.0	 0.0	 0.0	 0.0	 0.0	 0.0	 0.0	 0.0; % NG
	169	 152.915	 0.0	 153.0	 -153.0	 1.065	 100.0	 1	 305	 0.83	 0.0	 0.0	 0.0	 0.0	 0.0	 0.0	 0.0	 0.0	 0.0	 0.0	 0.0; % NG
	448	 738.0	 0.0	 738.0	 -738.0	 1.04	 100.0	 1	 1476	 0.0	 0.0	 0.0	 0.0	 0.0	 0.0	 0.0	 0.0	 0.0	 0.0	 0.0	 0.0; % NG
	241	 22.15	 0.0	 22.0	 -22.0	 1.011	 100.0	 1	 43	 1.3	 0.0	 0.0	 0.0	 0.0	 0.0	 0.0	 0.0	 0.0	 0.0	 0.0	 0.0; % NG
	241	 27.65	 0.0	 27.0	 -27.0	 1.011	 100.0	 1	 54	 1.3	 0.0	 0.0	 0.0	 0.0	 0.0	 0.0	 0.0	 0.0	 0.0	 0.0	 0.0; % NG
	241	 36.65	 0.0	 36.0	 -36.0	 1.011	 100.0	 1	 72	 1.3	 0.0	 0.0	 0.0	 0.0	 0.0	 0.0	 0.0	 0.0	 0.0	 0.0	 0.0; % NG
	241	 18.15	 0.0	 18.0	 -18.0	 1.011	 100.0	 1	 35	 1.3	 0.0	 0.0	 0.0	 0.0	 0.0	 0.0	 0.0	 0.0	 0.0	 0.0	 0.0; % NG
	270	 99.5	 0.0	 97.0	 -97.0	 1.029	 100.0	 1	 194	 5.0	 0.0	 0.0	 0.0	 0.0	 0.0	 0.0	 0.0	 0.0	 0.0	 0.0	 0.0; % NG
	885	 249.4	 0.0	 249.0	 -249.0	 1.029	 100.0	 1	 498	 0.8	 0.0	 0.0	 0.0	 0.0	 0.0	 0.0	 0.0	 0.0	 0.0	 0.0	 0.0; % PEL
	885	 249.4	 0.0	 249.0	 -249.0	 1.029	 100.0	 1	 498	 0.8	 0.0	 0.0	 0.0	 0.0	 0.0	 0.0	 0.0	 0.0	 0.0	 0.0	 0.0; % PEL
	876	 155.7	 0.0	 171.6	 -171.6	 1.04	 100.0	 1	 306	 5.4	 0.0	 0.0	 0.0	 0.0	 0.0	 0.0	 0.0	 0.0	 0.0	 0.0	 0.0; % NG
	46	 70.0	 0.0	 994.8	 -994.8	 1.038	 100.0	 1	 137	 3.0	 0.0	 0.0	 0.0	 0.0	 0.0	 0.0	 0.0	 0.0	 0.0	 0.0	 0.0; % NG
	803	 209.19	 0.0	 209.0	 -209.0	 1.036	 100.0	 1	 417	 1.38	 0.0	 0.0	 0.0	 0.0	 0.0	 0.0	 0.0	 0.0	 0.0	 0.0	 0.0; % NG
	356	 355.07	 0.0	 353.0	 -353.0	 1.047	 100.0	 1	 706	 4.14	 0.0	 0.0	 0.0	 0.0	 0.0	 0.0	 0.0	 0.0	 0.0	 0.0	 0.0; % NG
	100	 273.5	 0.0	 267.0	 -267.0	 1.036	 100.0	 1	 534	 13.0	 0.0	 0.0	 0.0	 0.0	 0.0	 0.0	 0.0	 0.0	 0.0	 0.0	 0.0; % NG
	707	 104.55	 0.0	 115.2	 -115.2	 1.05	 100.0	 1	 207	 2.1	 0.0	 0.0	 0.0	 0.0	 0.0	 0.0	 0.0	 0.0	 0.0	 0.0	 0.0; % PEL
	973	 -4.0	 0.0	 0.0	 0.0	 1.039	 100.0	 0	 0	 -8.0	 0.0	 0.0	 0.0	 0.0	 0.0	 0.0	 0.0	 0.0	 0.0	 0.0	 0.0; % SYNC
	973	 114.15	 0.0	 112.0	 -112.0	 1.039	 100.0	 1	 223	 5.3	 0.0	 0.0	 0.0	 0.0	 0.0	 0.0	 0.0	 0.0	 0.0	 0.0	 0.0; % NG
	1118	 303.75	 0.0	 301.0	 -301.0	 1.03	 100.0	 1	 602	 5.5	 0.0	 0.0	 0.0	 0.0	 0.0	 0.0	 0.0	 0.0	 0.0	 0.0	 0.0; % NG
	897	 91.85	 0.0	 91.0	 -91.0	 1.027	 100.0	 1	 181	 2.7	 0.0	 0.0	 0.0	 0.0	 0.0	 0.0	 0.0	 0.0	 0.0	 0.0	 0.0; % PEL
	897	 55.35	 0.0	 54.0	 -54.0	 1.027	 100.0	 1	 108	 2.7	 0.0	 0.0	 0.0	 0.0	 0.0	 0.0	 0.0	 0.0	 0.0	 0.0	 0.0; % NG
	58	 2.3	 -0.17	 2.0	 -2.34	 1.037	 100.0	 0	 4	 0.6	 0.0	 0.0	 0.0	 0.0	 0.0	 0.0	 0.0	 0.0	 0.0	 0.0	 0.0; % PEL
	82	 169.265	 0.0	 168.0	 -168.0	 1.025	 100.0	 1	 336	 2.53	 0.0	 0.0	 0.0	 0.0	 0.0	 0.0	 0.0	 0.0	 0.0	 0.0	 0.0; % PEL
	474	 118.6	 0.0	 116.0	 -116.0	 1.036	 100.0	 1	 232	 5.2	 0.0	 0.0	 0.0	 0.0	 0.0	 0.0	 0.0	 0.0	 0.0	 0.0	 0.0; % NG
	1221	 75.9	 0.0	 93.6	 -93.6	 1.056	 100.0	 1	 146	 5.8	 0.0	 0.0	 0.0	 0.0	 0.0	 0.0	 0.0	 0.0	 0.0	 0.0	 0.0; % NG
	355	 78.6	 0.0	 100.8	 -100.8	 1.05	 100.0	 1	 151	 6.2	 0.0	 0.0	 0.0	 0.0	 0.0	 0.0	 0.0	 0.0	 0.0	 0.0	 0.0; % NG
	471	 190.4	 0.0	 187.0	 -187.0	 1.037	 100.0	 1	 373	 7.8	 0.0	 0.0	 0.0	 0.0	 0.0	 0.0	 0.0	 0.0	 0.0	 0.0	 0.0; % NG
	1321	 35.05	 0.0	 1753.2	 -1753.2	 1.039	 100.0	 1	 69	 1.1	 0.0	 0.0	 0.0	 0.0	 0.0	 0.0	 0.0	 0.0	 0.0	 0.0	 0.0; % PEL
	1321	 37.5	 0.0	 1753.2	 -1753.2	 1.039	 100.0	 1	 75	 0.0	 0.0	 0.0	 0.0	 0.0	 0.0	 0.0	 0.0	 0.0	 0.0	 0.0	 0.0; % PEL
	1829	 89.675	 0.0	 89.0	 -89.0	 1.022	 100.0	 1	 177	 2.35	 0.0	 0.0	 0.0	 0.0	 0.0	 0.0	 0.0	 0.0	 0.0	 0.0	 0.0; % PEL
	1005	 72.45	 0.0	 71.0	 -71.0	 1.02	 100.0	 1	 141	 3.9	 0.0	 0.0	 0.0	 0.0	 0.0	 0.0	 0.0	 0.0	 0.0	 0.0	 0.0; % NG
	14	 98.88	 0.0	 98.0	 -98.0	 1.029	 100.0	 1	 195	 2.76	 0.0	 0.0	 0.0	 0.0	 0.0	 0.0	 0.0	 0.0	 0.0	 0.0	 0.0; % NG
	14	 75.2	 0.0	 74.0	 -74.0	 1.029	 100.0	 1	 148	 2.4	 0.0	 0.0	 0.0	 0.0	 0.0	 0.0	 0.0	 0.0	 0.0	 0.0	 0.0; % PEL
	1628	 285.0	 0.0	 235.0	 -235.0	 0.95	 100.0	 1	 470	 100.0	 0.0	 0.0	 0.0	 0.0	 0.0	 0.0	 0.0	 0.0	 0.0	 0.0	 0.0; % NG
	1629	 345.0	 0.0	 310.0	 -310.0	 0.95	 100.0	 1	 620	 70.0	 0.0	 0.0	 0.0	 0.0	 0.0	 0.0	 0.0	 0.0	 0.0	 0.0	 0.0; % COW
	1844	 44.35	 0.0	 43.0	 -43.0	 0.885	 100.0	 1	 86	 2.7	 0.0	 0.0	 0.0	 0.0	 0.0	 0.0	 0.0	 0.0	 0.0	 0.0	 0.0; % NG
	1630	 118.3	 0.0	 114.0	 -114.0	 0.928	 100.0	 1	 228	 8.6	 0.0	 0.0	 0.0	 0.0	 0.0	 0.0	 0.0	 0.0	 0.0	 0.0	 0.0; % NG
	1631	 61.45	 0.0	 59.0	 -59.0	 0.93	 100.0	 1	 118	 4.9	 0.0	 0.0	 0.0	 0.0	 0.0	 0.0	 0.0	 0.0	 0.0	 0.0	 0.0; % NG
	1846	 22.1	 0.0	 21.0	 -21.0	 1.034	 100.0	 1	 41	 3.2	 0.0	 0.0	 0.0	 0.0	 0.0	 0.0	 0.0	 0.0	 0.0	 0.0	 0.0; % NG
	1632	 49.1	 0.0	 48.0	 -48.0	 1.034	 100.0	 1	 95	 3.2	 0.0	 0.0	 0.0	 0.0	 0.0	 0.0	 0.0	 0.0	 0.0	 0.0	 0.0; % COW
	1847	 25.1	 0.0	 24.0	 -24.0	 1.034	 100.0	 1	 47	 3.2	 0.0	 0.0	 0.0	 0.0	 0.0	 0.0	 0.0	 0.0	 0.0	 0.0	 0.0; % PEL
	1848	 50.1	 0.0	 49.0	 -49.0	 1.034	 100.0	 1	 97	 3.2	 0.0	 0.0	 0.0	 0.0	 0.0	 0.0	 0.0	 0.0	 0.0	 0.0	 0.0; % NG
	1852	 91.1	 0.0	 87.0	 -87.0	 1.01	 100.0	 1	 173	 9.2	 0.0	 0.0	 0.0	 0.0	 0.0	 0.0	 0.0	 0.0	 0.0	 0.0	 0.0; % NG
	1854	 154.1	 0.0	 150.0	 -150.0	 1.031	 100.0	 1	 299	 9.2	 0.0	 0.0	 0.0	 0.0	 0.0	 0.0	 0.0	 0.0	 0.0	 0.0	 0.0; % NG
	1633	 659.2675	 0.0	 596.0	 -596.0	 1.0	 100.0	 1	 1191	 127.535	 0.0	 0.0	 0.0	 0.0	 0.0	 0.0	 0.0	 0.0	 0.0	 0.0	 0.0; % COW
	1634	 875.0125	 0.0	 803.0	 -803.0	 0.999	 100.0	 1	 1606	 144.025	 0.0	 0.0	 0.0	 0.0	 0.0	 0.0	 0.0	 0.0	 0.0	 0.0	 0.0; % COW
	1635	 904.52	 0.0	 841.0	 -841.0	 0.999	 100.0	 1	 1681	 128.04	 0.0	 0.0	 0.0	 0.0	 0.0	 0.0	 0.0	 0.0	 0.0	 0.0	 0.0; % COW
	1636	 637.2675	 0.0	 574.0	 -574.0	 1.0	 100.0	 1	 1148	 126.535	 0.0	 0.0	 0.0	 0.0	 0.0	 0.0	 0.0	 0.0	 0.0	 0.0	 0.0; % NG
	1637	 198.0	 0.0	 159.0	 -159.0	 0.954	 100.0	 1	 318	 78.0	 0.0	 0.0	 0.0	 0.0	 0.0	 0.0	 0.0	 0.0	 0.0	 0.0	 0.0; % NG
	1638	 254.5	 0.0	 216.0	 -216.0	 0.954	 100.0	 1	 432	 77.0	 0.0	 0.0	 0.0	 0.0	 0.0	 0.0	 0.0	 0.0	 0.0	 0.0	 0.0; % NG
	1639	 318.5	 0.0	 280.0	 -280.0	 0.977	 100.0	 1	 560	 77.0	 0.0	 0.0	 0.0	 0.0	 0.0	 0.0	 0.0	 0.0	 0.0	 0.0	 0.0; % NG
	1640	 203.5	 27.905	 228.81	 -173.0	 0.983	 100.0	 1	 346	 61.0	 0.0	 0.0	 0.0	 0.0	 0.0	 0.0	 0.0	 0.0	 0.0	 0.0	 0.0; % NG
	1641	 292.25	 0.0	 270.0	 -270.0	 0.986	 100.0	 1	 540	 44.5	 0.0	 0.0	 0.0	 0.0	 0.0	 0.0	 0.0	 0.0	 0.0	 0.0	 0.0; % NG
	1642	 68.4	 0.0	 66.0	 -66.0	 0.988	 100.0	 1	 131	 5.8	 0.0	 0.0	 0.0	 0.0	 0.0	 0.0	 0.0	 0.0	 0.0	 0.0	 0.0; % NG
	1643	 100.9	 0.0	 98.0	 -98.0	 0.988	 100.0	 1	 196	 5.8	 0.0	 0.0	 0.0	 0.0	 0.0	 0.0	 0.0	 0.0	 0.0	 0.0	 0.0; % NG
	1855	 78.4	 0.0	 76.0	 -76.0	 0.988	 100.0	 1	 151	 5.8	 0.0	 0.0	 0.0	 0.0	 0.0	 0.0	 0.0	 0.0	 0.0	 0.0	 0.0; % PEL
	1644	 84.9	 0.0	 82.0	 -82.0	 0.988	 100.0	 1	 164	 5.8	 0.0	 0.0	 0.0	 0.0	 0.0	 0.0	 0.0	 0.0	 0.0	 0.0	 0.0; % PEL
	1645	 67.9	 0.0	 65.0	 -65.0	 0.988	 100.0	 1	 130	 5.8	 0.0	 0.0	 0.0	 0.0	 0.0	 0.0	 0.0	 0.0	 0.0	 0.0	 0.0; % PEL
	1646	 691.25	 0.0	 658.0	 -658.0	 0.95	 100.0	 1	 1316	 66.5	 0.0	 0.0	 0.0	 0.0	 0.0	 0.0	 0.0	 0.0	 0.0	 0.0	 0.0; % COW
	1647	 83.7475	 0.0	 82.0	 -82.0	 1.045	 100.0	 1	 163	 4.495	 0.0	 0.0	 0.0	 0.0	 0.0	 0.0	 0.0	 0.0	 0.0	 0.0	 0.0; % NG
	1861	 44.6	 0.0	 43.0	 -43.0	 1.048	 100.0	 1	 86	 3.2	 0.0	 0.0	 0.0	 0.0	 0.0	 0.0	 0.0	 0.0	 0.0	 0.0	 0.0; % PEL
	1648	 539.0725	 9.295	 530.99	 -512.4	 0.963	 100.0	 1	 945	 133.145	 0.0	 0.0	 0.0	 0.0	 0.0	 0.0	 0.0	 0.0	 0.0	 0.0	 0.0; % COW
	1649	 652.705	 0.0	 585.0	 -585.0	 0.946	 100.0	 1	 1169	 136.41	 0.0	 0.0	 0.0	 0.0	 0.0	 0.0	 0.0	 0.0	 0.0	 0.0	 0.0; % COW
	1650	 1133.07	 0.0	 1065.0	 -1065.0	 0.964	 100.0	 1	 2129	 137.14	 0.0	 0.0	 0.0	 0.0	 0.0	 0.0	 0.0	 0.0	 0.0	 0.0	 0.0; % COW
	1651	 617.7	 0.0	 550.0	 -550.0	 0.946	 100.0	 1	 1099	 136.4	 0.0	 0.0	 0.0	 0.0	 0.0	 0.0	 0.0	 0.0	 0.0	 0.0	 0.0; % NG
	1652	 290.0	 235.02	 681.04	 -211.0	 0.945	 100.0	 1	 421	 159.0	 0.0	 0.0	 0.0	 0.0	 0.0	 0.0	 0.0	 0.0	 0.0	 0.0	 0.0; % COW
	1862	 798.0	 0.0	 719.0	 -719.0	 0.948	 100.0	 1	 1437	 159.0	 0.0	 0.0	 0.0	 0.0	 0.0	 0.0	 0.0	 0.0	 0.0	 0.0	 0.0; % NUC
	1653	 85.25	 0.0	 84.0	 -84.0	 1.029	 100.0	 1	 167	 3.5	 0.0	 0.0	 0.0	 0.0	 0.0	 0.0	 0.0	 0.0	 0.0	 0.0	 0.0; % NG
	1654	 56.75	 0.0	 55.0	 -55.0	 1.029	 100.0	 1	 110	 3.5	 0.0	 0.0	 0.0	 0.0	 0.0	 0.0	 0.0	 0.0	 0.0	 0.0	 0.0; % COW
	1655	 74.75	 0.0	 73.0	 -73.0	 1.029	 100.0	 1	 146	 3.5	 0.0	 0.0	 0.0	 0.0	 0.0	 0.0	 0.0	 0.0	 0.0	 0.0	 0.0; % PEL
	1656	 40.25	 0.0	 39.0	 -39.0	 1.029	 100.0	 1	 77	 3.5	 0.0	 0.0	 0.0	 0.0	 0.0	 0.0	 0.0	 0.0	 0.0	 0.0	 0.0; % NG
	1657	 36.25	 0.0	 35.0	 -35.0	 1.029	 100.0	 1	 69	 3.5	 0.0	 0.0	 0.0	 0.0	 0.0	 0.0	 0.0	 0.0	 0.0	 0.0	 0.0; % PEL
	1658	 103.25	 0.0	 102.0	 -102.0	 1.029	 100.0	 1	 203	 3.5	 0.0	 0.0	 0.0	 0.0	 0.0	 0.0	 0.0	 0.0	 0.0	 0.0	 0.0; % NG
	1863	 74.8475	 0.0	 73.0	 -73.0	 0.979	 100.0	 1	 146	 3.695	 0.0	 0.0	 0.0	 0.0	 0.0	 0.0	 0.0	 0.0	 0.0	 0.0	 0.0; % NG
	1659	 41.3475	 0.0	 40.0	 -40.0	 0.979	 100.0	 1	 79	 3.695	 0.0	 0.0	 0.0	 0.0	 0.0	 0.0	 0.0	 0.0	 0.0	 0.0	 0.0; % PEL
	1660	 78.3475	 0.0	 77.0	 -77.0	 0.979	 100.0	 1	 153	 3.695	 0.0	 0.0	 0.0	 0.0	 0.0	 0.0	 0.0	 0.0	 0.0	 0.0	 0.0; % PEL
	1661	 54.3475	 0.0	 53.0	 -53.0	 0.979	 100.0	 1	 105	 3.695	 0.0	 0.0	 0.0	 0.0	 0.0	 0.0	 0.0	 0.0	 0.0	 0.0	 0.0; % NG
	1662	 27.8475	 0.0	 26.0	 -26.0	 0.978	 100.0	 1	 52	 3.695	 0.0	 0.0	 0.0	 0.0	 0.0	 0.0	 0.0	 0.0	 0.0	 0.0	 0.0; % PEL
	1663	 19.8475	 0.275	 18.55	 -18.0	 0.978	 100.0	 1	 36	 3.695	 0.0	 0.0	 0.0	 0.0	 0.0	 0.0	 0.0	 0.0	 0.0	 0.0	 0.0; % PEL
	1865	 19.5	 0.0	 19.0	 -19.0	 0.942	 100.0	 1	 37	 2.0	 0.0	 0.0	 0.0	 0.0	 0.0	 0.0	 0.0	 0.0	 0.0	 0.0	 0.0; % NG
	1866	 23.55	 0.0	 22.0	 -22.0	 0.978	 100.0	 1	 44	 3.1	 0.0	 0.0	 0.0	 0.0	 0.0	 0.0	 0.0	 0.0	 0.0	 0.0	 0.0; % NG
	1664	 55.05	 0.0	 54.0	 -54.0	 0.978	 100.0	 1	 107	 3.1	 0.0	 0.0	 0.0	 0.0	 0.0	 0.0	 0.0	 0.0	 0.0	 0.0	 0.0; % NG
	1665	 47.55	 0.0	 46.0	 -46.0	 0.978	 100.0	 1	 92	 3.1	 0.0	 0.0	 0.0	 0.0	 0.0	 0.0	 0.0	 0.0	 0.0	 0.0	 0.0; % NG
	1867	 26.05	 0.0	 25.0	 -25.0	 0.978	 100.0	 1	 49	 3.1	 0.0	 0.0	 0.0	 0.0	 0.0	 0.0	 0.0	 0.0	 0.0	 0.0	 0.0; % PEL
	1666	 22.55	 0.0	 21.0	 -21.0	 0.979	 100.0	 1	 42	 3.1	 0.0	 0.0	 0.0	 0.0	 0.0	 0.0	 0.0	 0.0	 0.0	 0.0	 0.0; % COW
	1868	 34.55	 0.0	 33.0	 -33.0	 0.979	 100.0	 1	 66	 3.1	 0.0	 0.0	 0.0	 0.0	 0.0	 0.0	 0.0	 0.0	 0.0	 0.0	 0.0; % NG
	1667	 1164.25	 0.0	 1080.0	 -1080.0	 0.947	 100.0	 1	 2160	 168.5	 0.0	 0.0	 0.0	 0.0	 0.0	 0.0	 0.0	 0.0	 0.0	 0.0	 0.0; % COW
	1668	 778.25	 0.0	 687.0	 -687.0	 0.952	 100.0	 1	 1373	 183.5	 0.0	 0.0	 0.0	 0.0	 0.0	 0.0	 0.0	 0.0	 0.0	 0.0	 0.0; % NUC
	1669	 671.25	 34.015	 648.03	 -580.0	 0.953	 100.0	 1	 1159	 183.5	 0.0	 0.0	 0.0	 0.0	 0.0	 0.0	 0.0	 0.0	 0.0	 0.0	 0.0; % NUC
	1670	 321.85	 0.0	 322.0	 -322.0	 0.916	 100.0	 1	 643	 0.7	 0.0	 0.0	 0.0	 0.0	 0.0	 0.0	 0.0	 0.0	 0.0	 0.0	 0.0; % PEL
	1873	 308.0	 0.0	 296.0	 -296.0	 1.003	 100.0	 1	 592	 24.0	 0.0	 0.0	 0.0	 0.0	 0.0	 0.0	 0.0	 0.0	 0.0	 0.0	 0.0; % NG
	1874	 291.0	 0.0	 279.0	 -279.0	 1.003	 100.0	 1	 558	 24.0	 0.0	 0.0	 0.0	 0.0	 0.0	 0.0	 0.0	 0.0	 0.0	 0.0	 0.0; % NG
	1671	 723.18	 0.0	 665.0	 -665.0	 0.95	 100.0	 1	 1330	 116.36	 0.0	 0.0	 0.0	 0.0	 0.0	 0.0	 0.0	 0.0	 0.0	 0.0	 0.0; % COW
	1673	 610.935	 0.0	 550.0	 -550.0	 0.95	 100.0	 1	 1100	 121.87	 0.0	 0.0	 0.0	 0.0	 0.0	 0.0	 0.0	 0.0	 0.0	 0.0	 0.0; % COW
	1674	 694.685	 0.0	 634.0	 -634.0	 0.949	 100.0	 1	 1268	 121.37	 0.0	 0.0	 0.0	 0.0	 0.0	 0.0	 0.0	 0.0	 0.0	 0.0	 0.0; % COW
	1675	 551.25	 115.64	 682.28	 -451.0	 0.944	 100.0	 1	 901	 201.5	 0.0	 0.0	 0.0	 0.0	 0.0	 0.0	 0.0	 0.0	 0.0	 0.0	 0.0; % COW
	1676	 330.75	 186.985	 687.17	 -313.2	 0.95	 100.0	 1	 460	 201.5	 0.0	 0.0	 0.0	 0.0	 0.0	 0.0	 0.0	 0.0	 0.0	 0.0	 0.0; % COW
	1875	 1006.0	 0.0	 907.0	 -907.0	 0.973	 100.0	 1	 1813	 199.0	 0.0	 0.0	 0.0	 0.0	 0.0	 0.0	 0.0	 0.0	 0.0	 0.0	 0.0; % COW
	1677	 979.0	 0.0	 880.0	 -880.0	 0.971	 100.0	 1	 1759	 199.0	 0.0	 0.0	 0.0	 0.0	 0.0	 0.0	 0.0	 0.0	 0.0	 0.0	 0.0; % COW
	2022	 59.25	 0.0	 56.0	 -56.0	 1.077	 100.0	 1	 111	 7.5	 0.0	 0.0	 0.0	 0.0	 0.0	 0.0	 0.0	 0.0	 0.0	 0.0	 0.0; % NG
	1876	 105.25	 0.0	 102.0	 -102.0	 1.077	 100.0	 1	 203	 7.5	 0.0	 0.0	 0.0	 0.0	 0.0	 0.0	 0.0	 0.0	 0.0	 0.0	 0.0; % COW
	1877	 102.25	 0.0	 99.0	 -99.0	 1.077	 100.0	 1	 197	 7.5	 0.0	 0.0	 0.0	 0.0	 0.0	 0.0	 0.0	 0.0	 0.0	 0.0	 0.0; % COW
	1878	 162.25	 0.0	 159.0	 -159.0	 1.077	 100.0	 1	 317	 7.5	 0.0	 0.0	 0.0	 0.0	 0.0	 0.0	 0.0	 0.0	 0.0	 0.0	 0.0; % NG
	1678	 181.625	 0.0	 180.0	 -180.0	 0.957	 100.0	 1	 359	 4.25	 0.0	 0.0	 0.0	 0.0	 0.0	 0.0	 0.0	 0.0	 0.0	 0.0	 0.0; % NG
	1679	 249.625	 0.0	 248.0	 -248.0	 0.957	 100.0	 1	 495	 4.25	 0.0	 0.0	 0.0	 0.0	 0.0	 0.0	 0.0	 0.0	 0.0	 0.0	 0.0; % NG
	1680	 141.55	 0.0	 141.0	 -141.0	 0.961	 100.0	 1	 281	 2.1	 0.0	 0.0	 0.0	 0.0	 0.0	 0.0	 0.0	 0.0	 0.0	 0.0	 0.0; % NG
	1681	 553.5	 0.0	 509.0	 -509.0	 0.95	 100.0	 1	 1017	 90.0	 0.0	 0.0	 0.0	 0.0	 0.0	 0.0	 0.0	 0.0	 0.0	 0.0	 0.0; % COW
	1682	 502.5	 0.0	 425.0	 -425.0	 0.928	 100.0	 1	 850	 155.0	 0.0	 0.0	 0.0	 0.0	 0.0	 0.0	 0.0	 0.0	 0.0	 0.0	 0.0; % COW
	1683	 505.0	 0.0	 428.0	 -428.0	 0.933	 100.0	 1	 855	 155.0	 0.0	 0.0	 0.0	 0.0	 0.0	 0.0	 0.0	 0.0	 0.0	 0.0	 0.0; % COW
	1684	 419.75	 0.0	 369.0	 -369.0	 0.954	 100.0	 1	 737	 102.5	 0.0	 0.0	 0.0	 0.0	 0.0	 0.0	 0.0	 0.0	 0.0	 0.0	 0.0; % COW
	1881	 35.5	 0.0	 33.0	 -33.0	 0.957	 100.0	 1	 66	 5.0	 0.0	 0.0	 0.0	 0.0	 0.0	 0.0	 0.0	 0.0	 0.0	 0.0	 0.0; % NG
	1882	 30.0	 0.0	 28.0	 -28.0	 0.957	 100.0	 1	 55	 5.0	 0.0	 0.0	 0.0	 0.0	 0.0	 0.0	 0.0	 0.0	 0.0	 0.0	 0.0; % NG
	1685	 45.5	 0.0	 43.0	 -43.0	 0.957	 100.0	 1	 86	 5.0	 0.0	 0.0	 0.0	 0.0	 0.0	 0.0	 0.0	 0.0	 0.0	 0.0	 0.0; % NG
	1883	 31.0	 0.0	 29.0	 -29.0	 0.957	 100.0	 1	 57	 5.0	 0.0	 0.0	 0.0	 0.0	 0.0	 0.0	 0.0	 0.0	 0.0	 0.0	 0.0; % NG
	1884	 123.5	 0.0	 121.0	 -121.0	 0.957	 100.0	 1	 242	 5.0	 0.0	 0.0	 0.0	 0.0	 0.0	 0.0	 0.0	 0.0	 0.0	 0.0	 0.0; % NG
	1885	 46.5	 0.0	 44.0	 -44.0	 0.957	 100.0	 1	 88	 5.0	 0.0	 0.0	 0.0	 0.0	 0.0	 0.0	 0.0	 0.0	 0.0	 0.0	 0.0; % COW
	1686	 626.5	 0.0	 557.0	 -557.0	 0.972	 100.0	 1	 1113	 140.0	 0.0	 0.0	 0.0	 0.0	 0.0	 0.0	 0.0	 0.0	 0.0	 0.0	 0.0; % NG
	1687	 858.5	 0.0	 789.0	 -789.0	 0.973	 100.0	 1	 1577	 140.0	 0.0	 0.0	 0.0	 0.0	 0.0	 0.0	 0.0	 0.0	 0.0	 0.0	 0.0; % COW
	1688	 696.5	 0.0	 627.0	 -627.0	 0.974	 100.0	 1	 1253	 140.0	 0.0	 0.0	 0.0	 0.0	 0.0	 0.0	 0.0	 0.0	 0.0	 0.0	 0.0; % NUC
	1689	 693.0	 0.0	 623.0	 -623.0	 0.964	 100.0	 0	 1246	 140.0	 0.0	 0.0	 0.0	 0.0	 0.0	 0.0	 0.0	 0.0	 0.0	 0.0	 0.0; % COW
	1888	 92.35	 0.0	 90.0	 -90.0	 0.983	 100.0	 1	 179	 5.7	 0.0	 0.0	 0.0	 0.0	 0.0	 0.0	 0.0	 0.0	 0.0	 0.0	 0.0; % NG
	1690	 739.75	 0.0	 680.0	 -680.0	 0.922	 100.0	 1	 1360	 119.5	 0.0	 0.0	 0.0	 0.0	 0.0	 0.0	 0.0	 0.0	 0.0	 0.0	 0.0; % COW
	1691	 42.75	 6.625	 51.25	 -38.0	 0.95	 100.0	 1	 75	 10.5	 0.0	 0.0	 0.0	 0.0	 0.0	 0.0	 0.0	 0.0	 0.0	 0.0	 0.0; % NG
	1692	 236.2	 37.96	 258.1	 -182.18	 0.99	 100.0	 1	 348	 124.4	 0.0	 0.0	 0.0	 0.0	 0.0	 0.0	 0.0	 0.0	 0.0	 0.0	 0.0; % NG
	1693	 209.9525	 0.0	 190.0	 -190.0	 0.95	 100.0	 1	 379	 40.905	 0.0	 0.0	 0.0	 0.0	 0.0	 0.0	 0.0	 0.0	 0.0	 0.0	 0.0; % NG
	1694	 119.57	 0.0	 99.0	 -99.0	 0.95	 100.0	 1	 198	 41.14	 0.0	 0.0	 0.0	 0.0	 0.0	 0.0	 0.0	 0.0	 0.0	 0.0	 0.0; % NG
	1695	 283.9775	 0.0	 271.0	 -271.0	 0.95	 100.0	 1	 541	 26.955	 0.0	 0.0	 0.0	 0.0	 0.0	 0.0	 0.0	 0.0	 0.0	 0.0	 0.0; % NG
	1696	 158.4925	 0.0	 148.0	 -148.0	 0.95	 100.0	 1	 295	 21.985	 0.0	 0.0	 0.0	 0.0	 0.0	 0.0	 0.0	 0.0	 0.0	 0.0	 0.0; % NG
	1697	 309.4225	 136.57	 525.14	 -252.0	 0.95	 100.0	 1	 504	 114.845	 0.0	 0.0	 0.0	 0.0	 0.0	 0.0	 0.0	 0.0	 0.0	 0.0	 0.0; % NG
	1698	 432.4225	 75.07	 525.14	 -375.0	 0.95	 100.0	 1	 750	 114.845	 0.0	 0.0	 0.0	 0.0	 0.0	 0.0	 0.0	 0.0	 0.0	 0.0	 0.0; % COW
	1699	 335.6725	 124.885	 526.77	 -277.0	 0.95	 100.0	 1	 553	 118.345	 0.0	 0.0	 0.0	 0.0	 0.0	 0.0	 0.0	 0.0	 0.0	 0.0	 0.0; % COW
	1700	 229.9225	 181.645	 530.29	 -167.0	 0.95	 100.0	 1	 334	 125.845	 0.0	 0.0	 0.0	 0.0	 0.0	 0.0	 0.0	 0.0	 0.0	 0.0	 0.0; % COW
	1701	 38.1	 0.0	 37.0	 -37.0	 0.96	 100.0	 1	 73	 3.2	 0.0	 0.0	 0.0	 0.0	 0.0	 0.0	 0.0	 0.0	 0.0	 0.0	 0.0; % NG
	1702	 90.495	 0.0	 89.0	 -89.0	 0.982	 100.0	 1	 177	 3.99	 0.0	 0.0	 0.0	 0.0	 0.0	 0.0	 0.0	 0.0	 0.0	 0.0	 0.0; % NG
	1703	 116.495	 0.0	 115.0	 -115.0	 0.982	 100.0	 1	 229	 3.99	 0.0	 0.0	 0.0	 0.0	 0.0	 0.0	 0.0	 0.0	 0.0	 0.0	 0.0; % COW
	1889	 69.495	 0.0	 68.0	 -68.0	 0.982	 100.0	 1	 135	 3.99	 0.0	 0.0	 0.0	 0.0	 0.0	 0.0	 0.0	 0.0	 0.0	 0.0	 0.0; % NG
	1704	 797.0	 0.0	 712.0	 -712.0	 0.988	 100.0	 1	 1424	 170.0	 0.0	 0.0	 0.0	 0.0	 0.0	 0.0	 0.0	 0.0	 0.0	 0.0	 0.0; % COW
	1705	 777.0	 0.0	 692.0	 -692.0	 0.985	 100.0	 1	 1384	 170.0	 0.0	 0.0	 0.0	 0.0	 0.0	 0.0	 0.0	 0.0	 0.0	 0.0	 0.0; % COW
	1890	 55.2	 0.0	 54.0	 -54.0	 0.964	 100.0	 1	 108	 2.4	 0.0	 0.0	 0.0	 0.0	 0.0	 0.0	 0.0	 0.0	 0.0	 0.0	 0.0; % PEL
	1891	 19.2	 0.0	 18.0	 -18.0	 0.964	 100.0	 1	 36	 2.4	 0.0	 0.0	 0.0	 0.0	 0.0	 0.0	 0.0	 0.0	 0.0	 0.0	 0.0; % PEL
	1892	 22.2	 0.0	 21.0	 -21.0	 0.964	 100.0	 1	 42	 2.4	 0.0	 0.0	 0.0	 0.0	 0.0	 0.0	 0.0	 0.0	 0.0	 0.0	 0.0; % NG
	1706	 18.7	 0.0	 18.0	 -18.0	 0.962	 100.0	 1	 35	 2.4	 0.0	 0.0	 0.0	 0.0	 0.0	 0.0	 0.0	 0.0	 0.0	 0.0	 0.0; % NG
	1707	 55.2	 0.0	 54.0	 -54.0	 0.975	 100.0	 1	 108	 2.4	 0.0	 0.0	 0.0	 0.0	 0.0	 0.0	 0.0	 0.0	 0.0	 0.0	 0.0; % NG
	2026	 33.7	 0.0	 33.0	 -33.0	 0.976	 100.0	 1	 65	 2.4	 0.0	 0.0	 0.0	 0.0	 0.0	 0.0	 0.0	 0.0	 0.0	 0.0	 0.0; % PEL
	1898	 37.2	 0.0	 36.0	 -36.0	 0.976	 100.0	 1	 72	 2.4	 0.0	 0.0	 0.0	 0.0	 0.0	 0.0	 0.0	 0.0	 0.0	 0.0	 0.0; % PEL
	1708	 46.7	 0.0	 46.0	 -46.0	 0.984	 100.0	 1	 91	 2.4	 0.0	 0.0	 0.0	 0.0	 0.0	 0.0	 0.0	 0.0	 0.0	 0.0	 0.0; % NG
	1709	 54.2	 0.0	 53.0	 -53.0	 0.975	 100.0	 1	 106	 2.4	 0.0	 0.0	 0.0	 0.0	 0.0	 0.0	 0.0	 0.0	 0.0	 0.0	 0.0; % NG
	1710	 25.95	 0.0	 25.0	 -25.0	 0.984	 100.0	 1	 49	 2.9	 0.0	 0.0	 0.0	 0.0	 0.0	 0.0	 0.0	 0.0	 0.0	 0.0	 0.0; % NG
	1711	 57.95	 0.0	 57.0	 -57.0	 0.984	 100.0	 1	 113	 2.9	 0.0	 0.0	 0.0	 0.0	 0.0	 0.0	 0.0	 0.0	 0.0	 0.0	 0.0; % PEL
	1712	 895.5	 0.0	 824.0	 -824.0	 0.981	 100.0	 1	 1647	 144.0	 0.0	 0.0	 0.0	 0.0	 0.0	 0.0	 0.0	 0.0	 0.0	 0.0	 0.0; % NUC
	1713	 874.0	 0.0	 802.0	 -802.0	 0.98	 100.0	 1	 1604	 144.0	 0.0	 0.0	 0.0	 0.0	 0.0	 0.0	 0.0	 0.0	 0.0	 0.0	 0.0; % NG
	1714	 171.815	 52.95	 255.9	 -150.0	 0.95	 100.0	 1	 299	 44.63	 0.0	 0.0	 0.0	 0.0	 0.0	 0.0	 0.0	 0.0	 0.0	 0.0	 0.0; % NG
	1715	 248.75	 167.44	 524.88	 -190.0	 0.95	 100.0	 1	 379	 118.5	 0.0	 0.0	 0.0	 0.0	 0.0	 0.0	 0.0	 0.0	 0.0	 0.0	 0.0; % COW
	1716	 535.25	 29.635	 528.27	 -469.0	 0.95	 100.0	 1	 937	 133.5	 0.0	 0.0	 0.0	 0.0	 0.0	 0.0	 0.0	 0.0	 0.0	 0.0	 0.0; % COW
	1717	 824.25	 0.0	 765.0	 -765.0	 0.945	 100.0	 1	 1530	 118.5	 0.0	 0.0	 0.0	 0.0	 0.0	 0.0	 0.0	 0.0	 0.0	 0.0	 0.0; % NUC
	1718	 226.25	 180.795	 528.59	 -167.0	 0.948	 100.0	 1	 334	 118.5	 0.0	 0.0	 0.0	 0.0	 0.0	 0.0	 0.0	 0.0	 0.0	 0.0	 0.0; % COW
	1719	 448.25	 70.265	 529.53	 -389.0	 0.95	 100.0	 1	 778	 118.5	 0.0	 0.0	 0.0	 0.0	 0.0	 0.0	 0.0	 0.0	 0.0	 0.0	 0.0; % NUC
	1720	 266.25	 148.565	 504.13	 -207.0	 0.95	 100.0	 1	 414	 118.5	 0.0	 0.0	 0.0	 0.0	 0.0	 0.0	 0.0	 0.0	 0.0	 0.0	 0.0; % COW
	1721	 324.25	 0.0	 293.0	 -293.0	 0.95	 100.0	 1	 586	 62.5	 0.0	 0.0	 0.0	 0.0	 0.0	 0.0	 0.0	 0.0	 0.0	 0.0	 0.0; % NG
	1906	 266.97	 0.0	 259.0	 -259.0	 0.997	 100.0	 1	 517	 16.94	 0.0	 0.0	 0.0	 0.0	 0.0	 0.0	 0.0	 0.0	 0.0	 0.0	 0.0; % COW
	1907	 235.47	 0.0	 227.0	 -227.0	 0.997	 100.0	 1	 454	 16.94	 0.0	 0.0	 0.0	 0.0	 0.0	 0.0	 0.0	 0.0	 0.0	 0.0	 0.0; % NG
	1908	 161.47	 0.0	 153.0	 -153.0	 0.996	 100.0	 1	 306	 16.94	 0.0	 0.0	 0.0	 0.0	 0.0	 0.0	 0.0	 0.0	 0.0	 0.0	 0.0; % COW
	1909	 118.97	 0.0	 111.0	 -111.0	 0.996	 100.0	 1	 221	 16.94	 0.0	 0.0	 0.0	 0.0	 0.0	 0.0	 0.0	 0.0	 0.0	 0.0	 0.0; % NG
	1910	 115.47	 0.0	 107.0	 -107.0	 0.997	 100.0	 1	 214	 16.94	 0.0	 0.0	 0.0	 0.0	 0.0	 0.0	 0.0	 0.0	 0.0	 0.0	 0.0; % NG
	1911	 384.97	 0.0	 377.0	 -377.0	 0.997	 100.0	 1	 753	 16.94	 0.0	 0.0	 0.0	 0.0	 0.0	 0.0	 0.0	 0.0	 0.0	 0.0	 0.0; % COW
	1912	 437.97	 0.0	 430.0	 -430.0	 0.996	 100.0	 1	 859	 16.94	 0.0	 0.0	 0.0	 0.0	 0.0	 0.0	 0.0	 0.0	 0.0	 0.0	 0.0; % COW
	1913	 134.97	 0.0	 127.0	 -127.0	 0.996	 100.0	 1	 253	 16.94	 0.0	 0.0	 0.0	 0.0	 0.0	 0.0	 0.0	 0.0	 0.0	 0.0	 0.0; % PEL
	1722	 386.2	 0.0	 332.0	 -332.0	 0.95	 100.0	 1	 664	 108.4	 0.0	 0.0	 0.0	 0.0	 0.0	 0.0	 0.0	 0.0	 0.0	 0.0	 0.0; % NG
	1723	 298.5	 0.0	 266.0	 -266.0	 0.969	 100.0	 1	 532	 65.0	 0.0	 0.0	 0.0	 0.0	 0.0	 0.0	 0.0	 0.0	 0.0	 0.0	 0.0; % NG
	1724	 292.5	 0.0	 230.0	 -230.0	 0.967	 100.0	 0	 460	 125.0	 0.0	 0.0	 0.0	 0.0	 0.0	 0.0	 0.0	 0.0	 0.0	 0.0	 0.0; % COW
	1725	 318.5	 0.0	 256.0	 -256.0	 0.951	 100.0	 1	 512	 125.0	 0.0	 0.0	 0.0	 0.0	 0.0	 0.0	 0.0	 0.0	 0.0	 0.0	 0.0; % NG
	1919	 85.5	 0.0	 85.0	 -85.0	 1.027	 100.0	 1	 169	 2.0	 0.0	 0.0	 0.0	 0.0	 0.0	 0.0	 0.0	 0.0	 0.0	 0.0	 0.0; % PEL
	1920	 80.7	 0.0	 80.0	 -80.0	 1.026	 100.0	 1	 159	 2.4	 0.0	 0.0	 0.0	 0.0	 0.0	 0.0	 0.0	 0.0	 0.0	 0.0	 0.0; % PEL
	1921	 29.2	 0.0	 28.0	 -28.0	 1.029	 100.0	 1	 56	 2.4	 0.0	 0.0	 0.0	 0.0	 0.0	 0.0	 0.0	 0.0	 0.0	 0.0	 0.0; % PEL
	1922	 50.2	 0.0	 49.0	 -49.0	 1.029	 100.0	 1	 98	 2.4	 0.0	 0.0	 0.0	 0.0	 0.0	 0.0	 0.0	 0.0	 0.0	 0.0	 0.0; % PEL
	1923	 77.2	 0.0	 76.0	 -76.0	 1.029	 100.0	 1	 152	 2.4	 0.0	 0.0	 0.0	 0.0	 0.0	 0.0	 0.0	 0.0	 0.0	 0.0	 0.0; % COW
	1924	 37.7	 0.0	 37.0	 -37.0	 1.029	 100.0	 1	 73	 2.4	 0.0	 0.0	 0.0	 0.0	 0.0	 0.0	 0.0	 0.0	 0.0	 0.0	 0.0; % PEL
	1726	 72.75	 0.0	 71.0	 -71.0	 0.979	 100.0	 1	 142	 3.5	 0.0	 0.0	 0.0	 0.0	 0.0	 0.0	 0.0	 0.0	 0.0	 0.0	 0.0; % COW
	1727	 36.25	 0.0	 35.0	 -35.0	 0.979	 100.0	 1	 69	 3.5	 0.0	 0.0	 0.0	 0.0	 0.0	 0.0	 0.0	 0.0	 0.0	 0.0	 0.0; % PEL
	1728	 39.25	 0.0	 38.0	 -38.0	 0.978	 100.0	 1	 75	 3.5	 0.0	 0.0	 0.0	 0.0	 0.0	 0.0	 0.0	 0.0	 0.0	 0.0	 0.0; % PEL
	1928	 61.75	 0.0	 60.0	 -60.0	 0.979	 100.0	 1	 120	 3.5	 0.0	 0.0	 0.0	 0.0	 0.0	 0.0	 0.0	 0.0	 0.0	 0.0	 0.0; % NG
	1729	 447.5	 0.0	 418.0	 -418.0	 0.943	 100.0	 1	 835	 60.0	 0.0	 0.0	 0.0	 0.0	 0.0	 0.0	 0.0	 0.0	 0.0	 0.0	 0.0; % NG
	1931	 137.65	 0.0	 134.0	 -134.0	 1.024	 100.0	 1	 268	 7.3	 0.0	 0.0	 0.0	 0.0	 0.0	 0.0	 0.0	 0.0	 0.0	 0.0	 0.0; % COW
	1932	 42.95	 5.57	 51.14	 -40.0	 1.033	 100.0	 1	 79	 6.9	 0.0	 0.0	 0.0	 0.0	 0.0	 0.0	 0.0	 0.0	 0.0	 0.0	 0.0; % NG
...
];

%% generator cost data
%	2	startup	shutdown	n	c(n-1)	...	c0
mpc.gencost = [
	2	 0.0	 0.0	 3	   0.000000	  48.342933	   0.000000; % NG
	2	 0.0	 0.0	 3	   0.000000	 115.868312	   0.000000; % NG
	2	 0.0	 0.0	 3	   0.000000	 157.305364	   0.000000; % PEL
	2	 0.0	 0.0	 3	   0.000000	 122.584188	   0.000000; % NG
	2	 0.0	 0.0	 3	   0.000000	 132.638651	   0.000000; % PEL
	2	 0.0	 0.0	 3	   0.000000	  48.628057	   0.000000; % PEL
	2	 0.0	 0.0	 3	   0.000000	  59.685308	   0.000000; % PEL
	2	 0.0	 0.0	 3	   0.000000	  28.136163	   0.000000; % NG
	2	 0.0	 0.0	 3	   0.000000	  34.895979	   0.000000; % COW
	2	 0.0	 0.0	 3	   0.000000	 116.072852	   0.000000; % NG
	2	 0.0	 0.0	 3	   0.000000	  24.203392	   0.000000; % NG
	2	 0.0	 0.0	 3	   0.000000	 131.424931	   0.000000; % NG
	2	 0.0	 0.0	 3	   0.000000	  39.145571	   0.000000; % NG
	2	 0.0	 0.0	 3	   0.000000	  42.822472	   0.000000; % PEL
	2	 0.0	 0.0	 3	   0.000000	  53.346162	   0.000000; % PEL
	2	 0.0	 0.0	 3	   0.000000	  36.132785	   0.000000; % NG
	2	 0.0	 0.0	 3	   0.000000	  55.778363	   0.000000; % NG
	2	 0.0	 0.0	 3	   0.000000	  34.956177	   0.000000; % NG
	2	 0.0	 0.0	 3	   0.000000	  42.959921	   0.000000; % NG
	2	 0.0	 0.0	 3	   0.000000	  42.841005	   0.000000; % NG
	2	 0.0	 0.0	 3	   0.000000	  56.720269	   0.000000; % NG
	2	 0.0	 0.0	 3	   0.000000	  43.974691	   0.000000; % NG
	2	 0.0	 0.0	 3	   0.000000	  43.598092	   0.000000; % NG
	2	 0.0	 0.0	 3	   0.000000	  43.457280	   0.000000; % NG
	2	 0.0	 0.0	 3	   0.000000	  42.948470	   0.000000; % PEL
	2	 0.0	 0.0	 3	   0.000000	  15.508115	   0.000000; % PEL
	2	 0.0	 0.0	 3	   0.000000	  47.141183	   0.000000; % NG
	2	 0.0	 0.0	 3	   0.000000	 132.019044	   0.000000; % NG
	2	 0.0	 0.0	 3	   0.000000	  55.283215	   0.000000; % NG
	2	 0.0	 0.0	 3	   0.000000	  53.860753	   0.000000; % NG
	2	 0.0	 0.0	 3	   0.000000	  50.210630	   0.000000; % NG
	2	 0.0	 0.0	 3	   0.000000	  42.127514	   0.000000; % PEL
	2	 0.0	 0.0	 3	   0.000000	   0.000000	   0.000000; % SYNC
	2	 0.0	 0.0	 3	   0.000000	  46.076231	   0.000000; % NG
	2	 0.0	 0.0	 3	   0.000000	  55.361005	   0.000000; % NG
	2	 0.0	 0.0	 3	   0.000000	 151.498718	   0.000000; % PEL
	2	 0.0	 0.0	 3	   0.000000	  37.864070	   0.000000; % NG
	2	 0.0	 0.0	 3	   0.000000	  44.808080	   0.000000; % PEL
	2	 0.0	 0.0	 3	   0.000000	  52.484652	   0.000000; % PEL
	2	 0.0	 0.0	 3	   0.000000	  47.270631	   0.000000; % NG
	2	 0.0	 0.0	 3	   0.000000	  90.228542	   0.000000; % NG
	2	 0.0	 0.0	 3	   0.000000	  44.135802	   0.000000; % NG
	2	 0.0	 0.0	 3	   0.000000	  46.226980	   0.000000; % NG
	2	 0.0	 0.0	 3	   0.000000	  53.882513	   0.000000; % PEL
	2	 0.0	 0.0	 3	   0.000000	 123.229274	   0.000000; % PEL
	2	 0.0	 0.0	 3	   0.000000	  28.583008	   0.000000; % PEL
	2	 0.0	 0.0	 3	   0.000000	 148.964145	   0.000000; % NG
	2	 0.0	 0.0	 3	   0.000000	 142.867042	   0.000000; % NG
	2	 0.0	 0.0	 3	   0.000000	 161.522814	   0.000000; % PEL
	2	 0.0	 0.0	 3	   0.000000	   7.184134	   0.000000; % NG
	2	 0.0	 0.0	 3	   0.000000	 124.235886	   0.000000; % COW
	2	 0.0	 0.0	 3	   0.000000	  41.783687	   0.000000; % NG
	2	 0.0	 0.0	 3	   0.000000	  43.951227	   0.000000; % NG
	2	 0.0	 0.0	 3	   0.000000	  47.423218	   0.000000; % NG
	2	 0.0	 0.0	 3	   0.000000	 148.572294	   0.000000; % NG
	2	 0.0	 0.0	 3	   0.000000	 153.608405	   0.000000; % COW
	2	 0.0	 0.0	 3	   0.000000	 118.578826	   0.000000; % PEL
	2	 0.0	 0.0	 3	   0.000000	  73.115368	   0.000000; % NG
	2	 0.0	 0.0	 3	   0.000000	  55.416541	   0.000000; % NG
	2	 0.0	 0.0	 3	   0.000000	  53.341821	   0.000000; % NG
	2	 0.0	 0.0	 3	   0.000000	   6.938591	   0.000000; % COW
	2	 0.0	 0.0	 3	   0.000000	  25.572840	   0.000000; % COW
	2	 0.0	 0.0	 3	   0.000000	  30.760276	   0.000000; % COW
	2	 0.0	 0.0	 3	   0.000000	  31.503496	   0.000000; % NG
	2	 0.0	 0.0	 3	   0.000000	  44.944860	   0.000000; % NG
	2	 0.0	 0.0	 3	   0.000000	  43.699523	   0.000000; % NG
	2	 0.0	 0.0	 3	   0.000000	  41.263969	   0.000000; % NG
	2	 0.0	 0.0	 3	   0.000000	  33.569643	   0.000000; % NG
	2	 0.0	 0.0	 3	   0.000000	  60.338371	   0.000000; % NG
	2	 0.0	 0.0	 3	   0.000000	 100.569199	   0.000000; % NG
	2	 0.0	 0.0	 3	   0.000000	 138.462155	   0.000000; % NG
	2	 0.0	 0.0	 3	   0.000000	 116.489130	   0.000000; % PEL
	2	 0.0	 0.0	 3	   0.000000	  30.913139	   0.000000; % PEL
	2	 0.0	 0.0	 3	   0.000000	  33.775588	   0.000000; % PEL
	2	 0.0	 0.0	 3	   0.000000	  55.193362	   0.000000; % COW
	2	 0.0	 0.0	 3	   0.000000	  54.194112	   0.000000; % NG
	2	 0.0	 0.0	 3	   0.000000	 123.414676	   0.000000; % PEL
	2	 0.0	 0.0	 3	   0.000000	  25.869870	   0.000000; % COW
	2	 0.0	 0.0	 3	   0.000000	  19.353243	   0.000000; % COW
	2	 0.0	 0.0	 3	   0.000000	  28.911176	   0.000000; % COW
	2	 0.0	 0.0	 3	   0.000000	  17.071715	   0.000000; % NG
	2	 0.0	 0.0	 3	   0.000000	   6.288065	   0.000000; % COW
	2	 0.0	 0.0	 3	   0.000000	  20.910011	   0.000000; % NUC
	2	 0.0	 0.0	 3	   0.000000	 128.740087	   0.000000; % NG
	2	 0.0	 0.0	 3	   0.000000	 143.639276	   0.000000; % COW
	2	 0.0	 0.0	 3	   0.000000	  50.129936	   0.000000; % PEL
	2	 0.0	 0.0	 3	   0.000000	 117.218331	   0.000000; % NG
	2	 0.0	 0.0	 3	   0.000000	  42.187865	   0.000000; % PEL
	2	 0.0	 0.0	 3	   0.000000	  63.983943	   0.000000; % NG
	2	 0.0	 0.0	 3	   0.000000	  47.257148	   0.000000; % NG
	2	 0.0	 0.0	 3	   0.000000	 110.618634	   0.000000; % PEL
	2	 0.0	 0.0	 3	   0.000000	  63.067391	   0.000000; % PEL
	2	 0.0	 0.0	 3	   0.000000	  42.973481	   0.000000; % NG
	2	 0.0	 0.0	 3	   0.000000	 168.297157	   0.000000; % PEL
	2	 0.0	 0.0	 3	   0.000000	  55.866922	   0.000000; % PEL
	2	 0.0	 0.0	 3	   0.000000	  50.288016	   0.000000; % NG
	2	 0.0	 0.0	 3	   0.000000	 109.141929	   0.000000; % NG
	2	 0.0	 0.0	 3	   0.000000	  22.639737	   0.000000; % NG
	2	 0.0	 0.0	 3	   0.000000	  55.959558	   0.000000; % NG
	2	 0.0	 0.0	 3	   0.000000	  59.413268	   0.000000; % PEL
	2	 0.0	 0.0	 3	   0.000000	  44.326312	   0.000000; % COW
	2	 0.0	 0.0	 3	   0.000000	 148.407248	   0.000000; % NG
	2	 0.0	 0.0	 3	   0.000000	  24.388731	   0.000000; % COW
	2	 0.0	 0.0	 3	   0.000000	   5.194934	   0.000000; % NUC
	2	 0.0	 0.0	 3	   0.000000	   7.283543	   0.000000; % NUC
	2	 0.0	 0.0	 3	   0.000000	 109.329523	   0.000000; % PEL
	2	 0.0	 0.0	 3	   0.000000	  43.866889	   0.000000; % NG
	2	 0.0	 0.0	 3	   0.000000	  44.527542	   0.000000; % NG
	2	 0.0	 0.0	 3	   0.000000	   7.224203	   0.000000; % COW
	2	 0.0	 0.0	 3	   0.000000	  34.164551	   0.000000; % COW
	2	 0.0	 0.0	 3	   0.000000	  63.658509	   0.000000; % COW
	2	 0.0	 0.0	 3	   0.000000	  26.112570	   0.000000; % COW
	2	 0.0	 0.0	 3	   0.000000	  27.371743	   0.000000; % COW
	2	 0.0	 0.0	 3	   0.000000	  28.098286	   0.000000; % COW
	2	 0.0	 0.0	 3	   0.000000	  33.731033	   0.000000; % COW
	2	 0.0	 0.0	 3	   0.000000	  37.442516	   0.000000; % NG
	2	 0.0	 0.0	 3	   0.000000	 125.840869	   0.000000; % COW
	2	 0.0	 0.0	 3	   0.000000	  20.838844	   0.000000; % COW
	2	 0.0	 0.0	 3	   0.000000	  38.698180	   0.000000; % NG
	2	 0.0	 0.0	 3	   0.000000	  37.355036	   0.000000; % NG
	2	 0.0	 0.0	 3	   0.000000	  55.731207	   0.000000; % NG
	2	 0.0	 0.0	 3	   0.000000	  42.516234	   0.000000; % NG
	2	 0.0	 0.0	 3	   0.000000	  26.528714	   0.000000; % COW
	2	 0.0	 0.0	 3	   0.000000	  24.237891	   0.000000; % COW
	2	 0.0	 0.0	 3	   0.000000	   7.195302	   0.000000; % COW
	2	 0.0	 0.0	 3	   0.000000	  25.232894	   0.000000; % COW
	2	 0.0	 0.0	 3	   0.000000	  40.811721	   0.000000; % NG
	2	 0.0	 0.0	 3	   0.000000	  41.791599	   0.000000; % NG
	2	 0.0	 0.0	 3	   0.000000	  33.741210	   0.000000; % NG
	2	 0.0	 0.0	 3	   0.000000	  58.276357	   0.000000; % NG
	2	 0.0	 0.0	 3	   0.000000	  46.074426	   0.000000; % NG
	2	 0.0	 0.0	 3	   0.000000	  18.385317	   0.000000; % COW
	2	 0.0	 0.0	 3	   0.000000	  17.932640	   0.000000; % NG
	2	 0.0	 0.0	 3	   0.000000	  20.465005	   0.000000; % COW
	2	 0.0	 0.0	 3	   0.000000	  32.340198	   0.000000; % NUC
	2	 0.0	 0.0	 3	   0.000000	   7.090993	   0.000000; % COW
	2	 0.0	 0.0	 3	   0.000000	  52.384025	   0.000000; % NG
	2	 0.0	 0.0	 3	   0.000000	  32.304653	   0.000000; % COW
	2	 0.0	 0.0	 3	   0.000000	  49.034287	   0.000000; % NG
	2	 0.0	 0.0	 3	   0.000000	  23.768358	   0.000000; % NG
	2	 0.0	 0.0	 3	   0.000000	  41.372372	   0.000000; % NG
	2	 0.0	 0.0	 3	   0.000000	  51.402421	   0.000000; % NG
	2	 0.0	 0.0	 3	   0.000000	  46.121270	   0.000000; % NG
	2	 0.0	 0.0	 3	   0.000000	  27.695137	   0.000000; % NG
	2	 0.0	 0.0	 3	   0.000000	  41.186357	   0.000000; % NG
	2	 0.0	 0.0	 3	   0.000000	  40.043684	   0.000000; % COW
	2	 0.0	 0.0	 3	   0.000000	  37.610342	   0.000000; % COW
	2	 0.0	 0.0	 3	   0.000000	  15.332815	   0.000000; % COW
	2	 0.0	 0.0	 3	   0.000000	 134.930079	   0.000000; % NG
	2	 0.0	 0.0	 3	   0.000000	  55.645120	   0.000000; % NG
	2	 0.0	 0.0	 3	   0.000000	  35.239867	   0.000000; % COW
	2	 0.0	 0.0	 3	   0.000000	  42.058600	   0.000000; % NG
	2	 0.0	 0.0	 3	   0.000000	   7.456457	   0.000000; % COW
	2	 0.0	 0.0	 3	   0.000000	   9.212593	   0.000000; % COW
	2	 0.0	 0.0	 3	   0.000000	  41.436131	   0.000000; % PEL
	2	 0.0	 0.0	 3	   0.000000	 133.890908	   0.000000; % PEL
	2	 0.0	 0.0	 3	   0.000000	 153.361223	   0.000000; % NG
	2	 0.0	 0.0	 3	   0.000000	 157.254327	   0.000000; % NG
	2	 0.0	 0.0	 3	   0.000000	 123.447591	   0.000000; % NG
	2	 0.0	 0.0	 3	   0.000000	 104.790399	   0.000000; % PEL
	2	 0.0	 0.0	 3	   0.000000	 112.311439	   0.000000; % PEL
	2	 0.0	 0.0	 3	   0.000000	  54.142087	   0.000000; % NG
	2	 0.0	 0.0	 3	   0.000000	 138.862434	   0.000000; % NG
	2	 0.0	 0.0	 3	   0.000000	  46.593249	   0.000000; % NG
	2	 0.0	 0.0	 3	   0.000000	 133.344706	   0.000000; % PEL
	2	 0.0	 0.0	 3	   0.000000	  40.517885	   0.000000; % NUC
	2	 0.0	 0.0	 3	   0.000000	  30.754776	   0.000000; % NG
	2	 0.0	 0.0	 3	   0.000000	  35.405896	   0.000000; % NG
	2	 0.0	 0.0	 3	   0.000000	  32.352324	   0.000000; % COW
	2	 0.0	 0.0	 3	   0.000000	  23.082378	   0.000000; % COW
	2	 0.0	 0.0	 3	   0.000000	  35.657419	   0.000000; % NUC
	2	 0.0	 0.0	 3	   0.000000	   7.241010	   0.000000; % COW
	2	 0.0	 0.0	 3	   0.000000	  25.958677	   0.000000; % NUC
	2	 0.0	 0.0	 3	   0.000000	  24.863058	   0.000000; % COW
	2	 0.0	 0.0	 3	   0.000000	  62.497818	   0.000000; % NG
	2	 0.0	 0.0	 3	   0.000000	  35.260956	   0.000000; % COW
	2	 0.0	 0.0	 3	   0.000000	  32.613696	   0.000000; % NG
	2	 0.0	 0.0	 3	   0.000000	  49.667180	   0.000000; % COW
	2	 0.0	 0.0	 3	   0.000000	  36.962898	   0.000000; % NG
	2	 0.0	 0.0	 3	   0.000000	  51.604319	   0.000000; % NG
	2	 0.0	 0.0	 3	   0.000000	 153.211736	   0.000000; % COW
	2	 0.0	 0.0	 3	   0.000000	  23.120548	   0.000000; % COW
	2	 0.0	 0.0	 3	   0.000000	  16.568632	   0.000000; % PEL
	2	 0.0	 0.0	 3	   0.000000	  20.388637	   0.000000; % NG
	2	 0.0	 0.0	 3	   0.000000	  52.237408	   0.000000; % NG
	2	 0.0	 0.0	 3	   0.000000	  54.015988	   0.000000; % COW
	2	 0.0	 0.0	 3	   0.000000	  33.087975	   0.000000; % NG
	2	 0.0	 0.0	 3	   0.000000	  49.141145	   0.000000; % PEL
	2	 0.0	 0.0	 3	   0.000000	 141.423080	   0.000000; % PEL
	2	 0.0	 0.0	 3	   0.000000	 160.240481	   0.000000; % PEL
	2	 0.0	 0.0	 3	   0.000000	 123.783104	   0.000000; % PEL
	2	 0.0	 0.0	 3	   0.000000	  48.862108	   0.000000; % COW
	2	 0.0	 0.0	 3	   0.000000	 137.815910	   0.000000; % PEL
	2	 0.0	 0.0	 3	   0.000000	 140.072658	   0.000000; % COW
	2	 0.0	 0.0	 3	   0.000000	  38.092713	   0.000000; % PEL
	2	 0.0	 0.0	 3	   0.000000	  27.914462	   0.000000; % PEL
	2	 0.0	 0.0	 3	   0.000000	 116.899383	   0.000000; % NG
	2	 0.0	 0.0	 3	   0.000000	  37.997909	   0.000000; % NG
	2	 0.0	 0.0	 3	   0.000000	  58.423847	   0.000000; % COW
	2	 0.0	 0.0	 3	   0.000000	  39.927685	   0.000000; % NG
...
];

%% branch data
%	fbus	tbus	r	x	b	rateA	rateB	rateC	ratio	angle	status	angmin	angmax
mpc.branch = [
	1833	 1	 0.002607	 0.017462	 0.0324	 540.0	 540.0	 540.0	 1.0	 0.0	 1	 -30.0	 30.0;
	29	 2	 2.1e-05	 0.000125	 0.1386	 737.0	 737.0	 737.0	 1.0	 0.0	 1	 -30.0	 30.0;
	675	 2	 0.000145	 0.001877	 0.0635	 2487.0	 2487.0	 2487.0	 1.0	 0.0	 1	 -30.0	 30.0;
	1271	 2	 0.000319	 0.003234	 0.0838	 1841.0	 1841.0	 1841.0	 1.0	 0.0	 1	 -30.0	 30.0;
	30	 2	 2.1e-05	 0.000125	 0.1386	 737.0	 737.0	 737.0	 1.0	 0.0	 1	 -30.0	 30.0;
	142	 3	 0.006163	 0.041067	 0.0759	 446.0	 446.0	 446.0	 1.0	 0.0	 1	 -30.0	 30.0;
	677	 3	 0.000652	 0.004369	 0.0081	 558.0	 558.0	 558.0	 1.0	 0.0	 1	 -30.0	 30.0;
	1048	 4	 0.009733	 0.034089	 0.0185	 905.0	 905.0	 905.0	 1.0	 0.0	 1	 -30.0	 30.0;
	101	 5	 0.000277	 0.002015	 0.003	 288.0	 288.0	 288.0	 1.0	 0.0	 1	 -30.0	 30.0;
	286	 6	 0.00881	 0.033995	 0.0607	 289.0	 289.0	 289.0	 1.0	 0.0	 1	 -30.0	 30.0;
	329	 6	 0.004642	 0.019832	 0.0354	 255.0	 255.0	 255.0	 1.0	 0.0	 1	 -30.0	 30.0;
	737	 5	 0.008861	 0.03506	 0.0623	 288.0	 288.0	 288.0	 1.0	 0.0	 1	 -30.0	 30.0;
	760	 5	 0.006993	 0.032869	 0.0557	 255.0	 255.0	 255.0	 1.0	 0.0	 1	 -30.0	 30.0;
	1330	 6	 0.002173	 0.008731	 0.0152	 3441.0	 3441.0	 3441.0	 1.0	 0.0	 1	 -30.0	 30.0;
	1350	 5	 0.00077	 0.003121	 0.0051	 9629.0	 9629.0	 9629.0	 1.0	 0.0	 1	 -30.0	 30.0;
	1523	 6	 0.004109	 0.016138	 0.0284	 288.0	 288.0	 288.0	 1.0	 0.0	 1	 -30.0	 30.0;
	102	 8	 8.3e-05	 0.000907	 0.0202	 1034.0	 1034.0	 1034.0	 1.0	 0.0	 1	 -30.0	 30.0;
	316	 8	 0.000552	 0.006726	 0.0939	 1786.0	 1786.0	 1786.0	 1.0	 0.0	 1	 -30.0	 30.0;
	623	 8	 0.000512	 0.008012	 0.2455	 2462.0	 2462.0	 2462.0	 1.0	 0.0	 1	 -30.0	 30.0;
	882	 8	 0.001107	 0.00918	 0.1906	 1644.0	 1644.0	 1644.0	 1.0	 0.0	 1	 -30.0	 30.0;
	103	 7	 6.2e-05	 0.000741	 0.0173	 1095.0	 1095.0	 1095.0	 1.0	 0.0	 1	 -30.0	 30.0;
	623	 8	 0.000512	 0.008019	 0.2455	 2462.0	 2462.0	 2462.0	 1.0	 0.0	 1	 -30.0	 30.0;
	623	 7	 0.001153	 0.013123	 0.1841	 1433.0	 1433.0	 1433.0	 1.0	 0.0	 1	 -30.0	 30.0;
	113	 9	 0.000158	 0.000672	 0.0719	 331.0	 331.0	 331.0	 1.0	 0.0	 1	 -30.0	 30.0;
	1134	 9	 4.5e-05	 8.9e-05	 0.002	 268.0	 268.0	 268.0	 1.0	 0.0	 1	 -30.0	 30.0;
	346	 10	 0.00478	 0.028622	 0.0547	 455.0	 455.0	 455.0	 1.0	 0.0	 1	 -30.0	 30.0;
	345	 10	 0.00478	 0.028583	 0.0547	 455.0	 455.0	 455.0	 1.0	 0.0	 1	 -30.0	 30.0;
	106	 11	 0.000257	 0.000514	 0.0294	 53862.0	 53862.0	 53862.0	 1.0	 0.0	 1	 -30.0	 30.0;
	758	 12	 0.000257	 0.002153	 0.2147	 452.0	 452.0	 452.0	 1.0	 0.0	 1	 -30.0	 30.0;
	962	 12	 0.000277	 0.000869	 0.0931	 481.0	 481.0	 481.0	 1.0	 0.0	 1	 -30.0	 30.0;
	955	 13	 0.000237	 0.00083	 0.1863	 268.0	 268.0	 268.0	 1.0	 0.0	 1	 -30.0	 30.0;
	995	 13	 0.000178	 0.000612	 0.1377	 268.0	 268.0	 268.0	 1.0	 0.0	 1	 -30.0	 30.0;
	39	 14	 0.002568	 0.011753	 0.0203	 424.0	 424.0	 424.0	 1.0	 0.0	 1	 -30.0	 30.0;
	1428	 14	 0.002568	 0.011615	 0.0228	 290.0	 290.0	 290.0	 1.0	 0.0	 1	 -30.0	 30.0;
	1054	 16	 9.9e-05	 0.00077	 0.078	 379.0	 379.0	 379.0	 1.0	 0.0	 1	 -30.0	 30.0;
	1054	 15	 9.9e-05	 0.00077	 0.077	 379.0	 379.0	 379.0	 1.0	 0.0	 1	 -30.0	 30.0;
	1428	 17	 0.000514	 0.003437	 0.0061	 290.0	 290.0	 290.0	 1.0	 0.0	 1	 -30.0	 30.0;
	1432	 17	 0.005476	 0.036879	 0.1255	 522.0	 522.0	 522.0	 1.0	 0.0	 1	 -30.0	 30.0;
	39	 17	 0.000514	 0.003457	 0.0061	 418.0	 418.0	 418.0	 1.0	 0.0	 1	 -30.0	 30.0;
	869	 18	 0.003477	 0.01118	 0.0187	 304.0	 304.0	 304.0	 1.0	 0.0	 1	 -30.0	 30.0;
	1089	 18	 0.000612	 0.003121	 0.0152	 270.0	 270.0	 270.0	 1.0	 0.0	 1	 -30.0	 30.0;
	1164	 20	 2.4e-05	 0.000144	 0.0213	 701.0	 701.0	 701.0	 1.0	 0.0	 1	 -30.0	 30.0;
	1164	 19	 7.1e-05	 0.000162	 0.0162	 251.0	 251.0	 251.0	 1.0	 0.0	 1	 -30.0	 30.0;
	972	 21	 0.000257	 0.001165	 0.002	 405.0	 405.0	 405.0	 1.0	 0.0	 1	 -30.0	 30.0;
	476	 22	 0.005709	 0.037926	 0.0688	 492.0	 492.0	 492.0	 1.0	 0.0	 1	 -30.0	 30.0;
	1497	 22	 0.001758	 0.011654	 0.0208	 492.0	 492.0	 492.0	 1.0	 0.0	 1	 -30.0	 30.0;
	69	 23	 0.001383	 0.009462	 0.0172	 463.0	 463.0	 463.0	 1.0	 0.0	 1	 -30.0	 30.0;
	446	 23	 0.00156	 0.006933	 0.0121	 432.0	 432.0	 432.0	 1.0	 0.0	 1	 -30.0	 30.0;
	605	 23	 0.006376	 0.028733	 0.0506	 432.0	 432.0	 432.0	 1.0	 0.0	 1	 -30.0	 30.0;
	987	 23	 0.00158	 0.010627	 0.0192	 481.0	 481.0	 481.0	 1.0	 0.0	 1	 -30.0	 30.0;
...